(PID.TID 0000.0001) 
(PID.TID 0000.0001) // ======================================================
(PID.TID 0000.0001) //                      MITgcm UV
(PID.TID 0000.0001) //                      =========
(PID.TID 0000.0001) // ======================================================
(PID.TID 0000.0001) // execution environment starting up...
(PID.TID 0000.0001) 
(PID.TID 0000.0001) // Build user:        jahn
(PID.TID 0000.0001) // Build host:        saramago.mit.edu
(PID.TID 0000.0001) // Build date:        Fri Dec 17 15:16:04 EST 2010
(PID.TID 0000.0001) 
(PID.TID 0000.0001) // =======================================================
(PID.TID 0000.0001) // Execution Environment parameter file "eedata"
(PID.TID 0000.0001) // =======================================================
(PID.TID 0000.0001) ># Example "eedata" file
(PID.TID 0000.0001) ># Lines beginning "#" are comments
(PID.TID 0000.0001) ># nTx - No. threads per process in X
(PID.TID 0000.0001) ># nTy - No. threads per process in Y
(PID.TID 0000.0001) > &EEPARMS
(PID.TID 0000.0001) > nTx=1,nTy=1
(PID.TID 0000.0001) > /
(PID.TID 0000.0001) ># Note: Some systems use & as the
(PID.TID 0000.0001) ># namelist terminator. Other systems
(PID.TID 0000.0001) ># use a / character (as shown here).
(PID.TID 0000.0001) 
(PID.TID 0000.0001) // =======================================================
(PID.TID 0000.0001) // Computational Grid Specification ( see files "SIZE.h" )
(PID.TID 0000.0001) //                                  ( and "eedata"       )
(PID.TID 0000.0001) // =======================================================
(PID.TID 0000.0001)      nPx =    1 ; /* No. processes in X */
(PID.TID 0000.0001)      nPy =    1 ; /* No. processes in Y */
(PID.TID 0000.0001)      nSx =    1 ; /* No. tiles in X per process */
(PID.TID 0000.0001)      nSy =    1 ; /* No. tiles in Y per process */
(PID.TID 0000.0001)      sNx =    1 ; /* Tile size in X */
(PID.TID 0000.0001)      sNy =    1 ; /* Tile size in Y */
(PID.TID 0000.0001)      OLx =    2 ; /* Tile overlap distance in X */
(PID.TID 0000.0001)      OLy =    2 ; /* Tile overlap distance in Y */
(PID.TID 0000.0001)      nTx =    1 ; /* No. threads in X per process */
(PID.TID 0000.0001)      nTy =    1 ; /* No. threads in Y per process */
(PID.TID 0000.0001)       Nr =   35 ; /* No. levels in the vertical   */
(PID.TID 0000.0001)       Nx =    1 ; /* Total domain size in X ( = nPx*nSx*sNx ) */
(PID.TID 0000.0001)       Ny =    1 ; /* Total domain size in Y ( = nPy*nSy*sNy ) */
(PID.TID 0000.0001)   nTiles =    1 ; /* Total no. tiles per process ( = nSx*nSy ) */
(PID.TID 0000.0001)   nProcs =    1 ; /* Total no. processes ( = nPx*nPy ) */
(PID.TID 0000.0001) nThreads =    1 ; /* Total no. threads per process ( = nTx*nTy ) */
(PID.TID 0000.0001) usingMPI =    F ; /* Flag used to control whether MPI is in use */
(PID.TID 0000.0001)                   /*  note: To execute a program with MPI calls */
(PID.TID 0000.0001)                   /*  it must be launched appropriately e.g     */
(PID.TID 0000.0001)                   /*  "mpirun -np 64 ......"                    */
(PID.TID 0000.0001) useCoupler=    F ;/* Flag used to control communications with   */
(PID.TID 0000.0001)                   /*  other model components, through a coupler */
(PID.TID 0000.0001) printMapIncludesZeros=    F ; /* print zeros in Std.Output maps */
(PID.TID 0000.0001) maxLengthPrt1D=   65 /* maxLength of 1D array printed to StdOut */
(PID.TID 0000.0001) 
(PID.TID 0000.0001) // ======================================================
(PID.TID 0000.0001) // Mapping of tiles to threads
(PID.TID 0000.0001) // ======================================================
(PID.TID 0000.0001) // -o- Thread   1, tiles (   1:   1,   1:   1)
(PID.TID 0000.0001) 
(PID.TID 0000.0001) // ======================================================
(PID.TID 0000.0001) // Tile <-> Tile connectvity table
(PID.TID 0000.0001) // ======================================================
(PID.TID 0000.0001) // Tile number: 000001 (process no. = 000001)
(PID.TID 0000.0001) //        WEST: Tile = 000001, Process = 000001, Comm = put
(PID.TID 0000.0001) //                bi = 000001, bj = 000001
(PID.TID 0000.0001) //        EAST: Tile = 000001, Process = 000001, Comm = put
(PID.TID 0000.0001) //                bi = 000001, bj = 000001
(PID.TID 0000.0001) //       SOUTH: Tile = 000001, Process = 000001, Comm = put
(PID.TID 0000.0001) //                bi = 000001, bj = 000001
(PID.TID 0000.0001) //       NORTH: Tile = 000001, Process = 000001, Comm = put
(PID.TID 0000.0001) //                bi = 000001, bj = 000001
(PID.TID 0000.0001) 
(PID.TID 0000.0001) // =======================================================
(PID.TID 0000.0001) // Model parameter file "data"
(PID.TID 0000.0001) // =======================================================
(PID.TID 0000.0001) >#
(PID.TID 0000.0001) ># ******************************
(PID.TID 0000.0001) ># Model parameters
(PID.TID 0000.0001) ># Continuous equation parameters
(PID.TID 0000.0001) ># ******************************
(PID.TID 0000.0001) >&PARM01
(PID.TID 0000.0001) >tRef= 26.5, 26.1, 26., 25.5, 25.4, 24.9, 24.5, 24.0, 23.7,
(PID.TID 0000.0001) >      23.3, 23.1, 22.8, 22.5, 22.1, 21.6, 20.6, 19.5, 18.4,
(PID.TID 0000.0001) >      17.3, 16.6, 15.5, 14.6, 13.8, 13.1, 11.6, 10.1, 7.7,
(PID.TID 0000.0001) >      5.3, 4.1, 3.7, 3.7, 3.4, 3.0, 2.8, 2.6,
(PID.TID 0000.0001) >sRef= 35*35.00,
(PID.TID 0000.0001) >no_slip_sides=.false.,
(PID.TID 0000.0001) >no_slip_bottom=.TRUE.,
(PID.TID 0000.0001) >viscAz=0.e0,
(PID.TID 0000.0001) >viscAh=0.e0,
(PID.TID 0000.0001) >diffKhT=1.E2,
(PID.TID 0000.0001) >diffKzT=1.E-4,
(PID.TID 0000.0001) >diffKhS=0.D0,
(PID.TID 0000.0001) >diffKzS=0.D0,
(PID.TID 0000.0001) >beta=1.E-11,
(PID.TID 0000.0001) >tAlpha=2.E-4,
(PID.TID 0000.0001) >sBeta =7.4E-4,
(PID.TID 0000.0001) >gravity=9.81,
(PID.TID 0000.0001) >gBaro=9.81,
(PID.TID 0000.0001) >rigidLid=.TRUE.,
(PID.TID 0000.0001) >implicitFreeSurface=.false.,
(PID.TID 0000.0001) >eosType='JMD95Z',
(PID.TID 0000.0001) >saltStepping=.FALSE.,
(PID.TID 0000.0001) >tempStepping=.TRUE.,
(PID.TID 0000.0001) >tempAdvection=.TRUE.,
(PID.TID 0000.0001) >momStepping=.FALSE.,
(PID.TID 0000.0001) >implicitDiffusion=.true.,
(PID.TID 0000.0001) >implicitViscosity=.false.,
(PID.TID 0000.0001) >allowFreezing=.false.,
(PID.TID 0000.0001) >useSingleCpuIO=.TRUE.,
(PID.TID 0000.0001) >useCDscheme=.FALSE.,
(PID.TID 0000.0001) >tempAdvScheme = 3,
(PID.TID 0000.0001) >saltAdvScheme = 3,
(PID.TID 0000.0001) >/
(PID.TID 0000.0001) >
(PID.TID 0000.0001) ># **************************
(PID.TID 0000.0001) ># Elliptic solver parameters
(PID.TID 0000.0001) ># **************************
(PID.TID 0000.0001) >&PARM02
(PID.TID 0000.0001) >cg2dMaxIters=300,
(PID.TID 0000.0001) >cg2dTargetResidual=1.E-7,
(PID.TID 0000.0001) >/
(PID.TID 0000.0001) >
(PID.TID 0000.0001) ># ************************
(PID.TID 0000.0001) ># Time stepping parameters
(PID.TID 0000.0001) ># ************************
(PID.TID 0000.0001) >&PARM03
(PID.TID 0000.0001) > nIter0=0,
(PID.TID 0000.0001) >#nTimeSteps=86400,
(PID.TID 0000.0001) > nTimeSteps=4,
(PID.TID 0000.0001) > deltaTmom= 3600.,
(PID.TID 0000.0001) > deltaTtracer= 3600.,
(PID.TID 0000.0001) > deltaTClock = 3600.,
(PID.TID 0000.0001) > cAdjFreq    = -1.,
(PID.TID 0000.0001) > abEps=0.1,
(PID.TID 0000.0001) > pChkptFreq  = 31104000.0,
(PID.TID 0000.0001) > chkptFreq   = 31104000.0,
(PID.TID 0000.0001) > dumpFreq    = 31104000.0,
(PID.TID 0000.0001) >#taveFreq    = 2592000.,
(PID.TID 0000.0001) > taveFreq    = 1.,
(PID.TID 0000.0001) >#monitorFreq = 2592000.,
(PID.TID 0000.0001) > monitorFreq = 1.,
(PID.TID 0000.0001) > tauThetaClimRelax=259200.,
(PID.TID 0000.0001) > tauSaltClimRelax=0.,
(PID.TID 0000.0001) > periodicExternalForcing=.TRUE.,
(PID.TID 0000.0001) > externForcingPeriod=2592000.,
(PID.TID 0000.0001) > externForcingCycle=31104000.,
(PID.TID 0000.0001) >/
(PID.TID 0000.0001) >
(PID.TID 0000.0001) ># *******************
(PID.TID 0000.0001) ># Gridding parameters
(PID.TID 0000.0001) ># *******************
(PID.TID 0000.0001) >&PARM04
(PID.TID 0000.0001) >usingCartesianGrid=.FALSE.,
(PID.TID 0000.0001) >usingSphericalPolarGrid=.TRUE.,
(PID.TID 0000.0001) >delX=1*1.E0,
(PID.TID 0000.0001) >delY=1*1.E0,
(PID.TID 0000.0001) >delZ=14*10, 5*15, 4*20, 2*50, 100, 2*150, 200, 300, 3*400, 2*500,
(PID.TID 0000.0001) >xgOrigin=335,
(PID.TID 0000.0001) >ygOrigin=-18.,
(PID.TID 0000.0001) >/
(PID.TID 0000.0001) >
(PID.TID 0000.0001) ># **********
(PID.TID 0000.0001) ># Data Files
(PID.TID 0000.0001) ># **********
(PID.TID 0000.0001) >&PARM05
(PID.TID 0000.0001) >bathyFile=       '../input/input/bathyneg.bin',
(PID.TID 0000.0001) >hydrogThetaFile= '../input/input/loc1_temp_janprof.bin',
(PID.TID 0000.0001) >hydrogSaltFile=  '../input/input/salt_uniform.bin',
(PID.TID 0000.0001) >zonalWindFile=   '',
(PID.TID 0000.0001) >meridWindFile=   '',
(PID.TID 0000.0001) >thetaClimFile=   '../input/input/loc1_temp_monsurf.bin',
(PID.TID 0000.0001) >saltClimFile=    '',
(PID.TID 0000.0001) >surfQFile=       '',
(PID.TID 0000.0001) >EmPmRFile=       '',
(PID.TID 0000.0001) >/
(PID.TID 0000.0001) 
(PID.TID 0000.0001) S/R INI_PARMS ; starts to read PARM01
(PID.TID 0000.0001) S/R INI_PARMS ; read PARM01 : OK
(PID.TID 0000.0001) S/R INI_PARMS ; starts to read PARM02
(PID.TID 0000.0001) S/R INI_PARMS ; read PARM02 : OK
(PID.TID 0000.0001) S/R INI_PARMS ; starts to read PARM03
(PID.TID 0000.0001) S/R INI_PARMS ; read PARM03 : OK
(PID.TID 0000.0001) S/R INI_PARMS ; starts to read PARM04
(PID.TID 0000.0001) S/R INI_PARMS ; read PARM04 : OK
(PID.TID 0000.0001) S/R INI_PARMS ; starts to read PARM05
(PID.TID 0000.0001) S/R INI_PARMS ; read PARM05 : OK
(PID.TID 0000.0001)  PACKAGES_BOOT: opening data.pkg
(PID.TID 0000.0001)  OPEN_COPY_DATA_FILE: opening file data.pkg
(PID.TID 0000.0001) // =======================================================
(PID.TID 0000.0001) // Parameter file "data.pkg"
(PID.TID 0000.0001) // =======================================================
(PID.TID 0000.0001) ># Packages
(PID.TID 0000.0001) > &PACKAGES
(PID.TID 0000.0001) > usePTRACERS=.TRUE.
(PID.TID 0000.0001) > useGCHEM=.TRUE.,
(PID.TID 0000.0001) > useKPP=.FALSE.,
(PID.TID 0000.0001) > useMNC=.TRUE.,
(PID.TID 0000.0001) > /
(PID.TID 0000.0001) 
(PID.TID 0000.0001)  PACKAGES_BOOT: finished reading data.pkg
(PID.TID 0000.0001)  MNC_READPARMS: opening file 'data.mnc'
(PID.TID 0000.0001)  OPEN_COPY_DATA_FILE: opening file data.mnc
(PID.TID 0000.0001) // =======================================================
(PID.TID 0000.0001) // Parameter file "data.mnc"
(PID.TID 0000.0001) // =======================================================
(PID.TID 0000.0001) ># Example "data.mnc" file
(PID.TID 0000.0001) ># Lines beginning "#" are comments
(PID.TID 0000.0001) > &MNC_01
(PID.TID 0000.0001) ># mnc_echo_gvtypes=.FALSE.,
(PID.TID 0000.0001) ># mnc_use_indir=.FALSE.,
(PID.TID 0000.0001) > mnc_use_outdir=.TRUE.,
(PID.TID 0000.0001) > mnc_outdir_str='dar1d_',
(PID.TID 0000.0001) > mnc_outdir_date=.TRUE.,
(PID.TID 0000.0001) > monitor_mnc=.FALSE.,
(PID.TID 0000.0001) > snapshot_mnc=.TRUE.,
(PID.TID 0000.0001) > timeave_mnc=.TRUE.,
(PID.TID 0000.0001) > pickup_read_mnc=.FALSE.,
(PID.TID 0000.0001) > pickup_write_mnc=.FALSE.,
(PID.TID 0000.0001) > /
(PID.TID 0000.0001) ># Note: Some systems use & as the
(PID.TID 0000.0001) ># namelist terminator. Other systems
(PID.TID 0000.0001) ># use a / character.
(PID.TID 0000.0001) 
(PID.TID 0000.0001)  MNC_READPARMS: finished reading data.mnc
(PID.TID 0000.0001)  PTRACERS_READPARMS: opening data.ptracers
(PID.TID 0000.0001)  OPEN_COPY_DATA_FILE: opening file data.ptracers
(PID.TID 0000.0001) // =======================================================
(PID.TID 0000.0001) // Parameter file "data.ptracers"
(PID.TID 0000.0001) // =======================================================
(PID.TID 0000.0001) > &PTRACERS_PARM01
(PID.TID 0000.0001) > PTRACERS_numInUse=99,
(PID.TID 0000.0001) > PTRACERS_Iter0= 0,
(PID.TID 0000.0001) ># tracer 1 - phosphate
(PID.TID 0000.0001) > PTRACERS_names(1)='PO4',
(PID.TID 0000.0001) > PTRACERS_units(1)='mmol P/m^3',
(PID.TID 0000.0001) > PTRACERS_advScheme(1)=33,
(PID.TID 0000.0001) > PTRACERS_diffKh(1)=0.E3,
(PID.TID 0000.0001) > PTRACERS_diffKr(1)=1.E-5,
(PID.TID 0000.0001) > PTRACERS_useGMRedi(1)=.FALSE. ,
(PID.TID 0000.0001) > PTRACERS_useKPP(1)=.FALSE. ,
(PID.TID 0000.0001) > PTRACERS_initialFile(1)='../input/input/loc1_phos_janprof.bin',
(PID.TID 0000.0001) ># tracer 2 - nitrate
(PID.TID 0000.0001) > PTRACERS_names(2)='NO3',
(PID.TID 0000.0001) > PTRACERS_units(2)='mmol N/m^3',
(PID.TID 0000.0001) > PTRACERS_advScheme(2)=33,
(PID.TID 0000.0001) > PTRACERS_diffKh(2)=0.E3,
(PID.TID 0000.0001) > PTRACERS_diffKr(2)=1.E-5,
(PID.TID 0000.0001) > PTRACERS_useGMRedi(2)=.FALSE. ,
(PID.TID 0000.0001) > PTRACERS_useKPP(2)=.FALSE. ,
(PID.TID 0000.0001) > PTRACERS_initialFile(2)='../input/input/loc1_nitr_janprof.bin',
(PID.TID 0000.0001) ># tracer 3 - dissolved iron
(PID.TID 0000.0001) > PTRACERS_names(3)='FeT',
(PID.TID 0000.0001) > PTRACERS_units(3)='mmol Fe/m^3',
(PID.TID 0000.0001) > PTRACERS_advScheme(3)=33,
(PID.TID 0000.0001) > PTRACERS_diffKh(3)=0.E3,
(PID.TID 0000.0001) > PTRACERS_diffKr(3)=1.E-5,
(PID.TID 0000.0001) > PTRACERS_useGMRedi(3)=.FALSE. ,
(PID.TID 0000.0001) > PTRACERS_useKPP(3)=.FALSE. ,
(PID.TID 0000.0001) >#PTRACERS_initialFile(3)='../input/input/loc1_FeT_run83_janprof.bin',
(PID.TID 0000.0001) > PTRACERS_initialFile(3)='../input/input/fet_uniform.bin',
(PID.TID 0000.0001) ># tracer 4 - silicic acid
(PID.TID 0000.0001) > PTRACERS_names(4)='SiO2',
(PID.TID 0000.0001) > PTRACERS_units(4)='mmol Si/m^3',
(PID.TID 0000.0001) > PTRACERS_advScheme(4)=33,
(PID.TID 0000.0001) > PTRACERS_diffKh(4)=0.E3,
(PID.TID 0000.0001) > PTRACERS_diffKr(4)=1.E-5,
(PID.TID 0000.0001) > PTRACERS_useGMRedi(4)=.FALSE. ,
(PID.TID 0000.0001) > PTRACERS_useKPP(4)=.FALSE. ,
(PID.TID 0000.0001) > PTRACERS_initialFile(4)='../input/input/loc1_sil_janprof.bin',
(PID.TID 0000.0001) ># tracer 5 - DOP
(PID.TID 0000.0001) > PTRACERS_names(5)='DOP',
(PID.TID 0000.0001) > PTRACERS_units(5)='mmol P/m^3',
(PID.TID 0000.0001) > PTRACERS_advScheme(5)=33,
(PID.TID 0000.0001) > PTRACERS_diffKh(5)=0.E3,
(PID.TID 0000.0001) > PTRACERS_diffKr(5)=1.E-5,
(PID.TID 0000.0001) > PTRACERS_useGMRedi(5)=.FALSE. ,
(PID.TID 0000.0001) > PTRACERS_useKPP(5)=.FALSE.  ,
(PID.TID 0000.0001) > PTRACERS_initialFile(5)='../input/input/loc1_DOP_run83_janprof.bin',
(PID.TID 0000.0001) ># tracer 6 - DON
(PID.TID 0000.0001) > PTRACERS_names(6)='DON',
(PID.TID 0000.0001) > PTRACERS_units(6)='mmol N/m^3',
(PID.TID 0000.0001) > PTRACERS_advScheme(6)=33,
(PID.TID 0000.0001) > PTRACERS_diffKh(6)=0.E3,
(PID.TID 0000.0001) > PTRACERS_diffKr(6)=1.E-5,
(PID.TID 0000.0001) > PTRACERS_useGMRedi(6)=.FALSE. ,
(PID.TID 0000.0001) > PTRACERS_useKPP(6)=.FALSE.  ,
(PID.TID 0000.0001) > PTRACERS_initialFile(6)='../input/input/loc1_DON_run83_janprof.bin',
(PID.TID 0000.0001) ># tracer 7 - DOFe
(PID.TID 0000.0001) > PTRACERS_names(7)='DOFe',
(PID.TID 0000.0001) > PTRACERS_units(7)='mmol Fe/m^3',
(PID.TID 0000.0001) > PTRACERS_advScheme(7)=33,
(PID.TID 0000.0001) > PTRACERS_diffKh(7)=0.E3,
(PID.TID 0000.0001) > PTRACERS_diffKr(7)=1.E-5,
(PID.TID 0000.0001) > PTRACERS_useGMRedi(7)=.FALSE. ,
(PID.TID 0000.0001) > PTRACERS_useKPP(7)=.FALSE.  ,
(PID.TID 0000.0001) > PTRACERS_initialFile(7)='../input/input/loc1_DOFe_run83_janprof.bin',
(PID.TID 0000.0001) ># tracer 8 - ZOO1P
(PID.TID 0000.0001) > PTRACERS_names(8)='ZOO1P',
(PID.TID 0000.0001) > PTRACERS_units(8)='mmol P/m^3',
(PID.TID 0000.0001) > PTRACERS_advScheme(8)=33,
(PID.TID 0000.0001) > PTRACERS_diffKh(8)=0.E3,
(PID.TID 0000.0001) > PTRACERS_diffKr(8)=1.E-5,
(PID.TID 0000.0001) > PTRACERS_useGMRedi(8)=.FALSE. ,
(PID.TID 0000.0001) > PTRACERS_useKPP(8)=.FALSE.  ,
(PID.TID 0000.0001) > PTRACERS_initialFile(8)='../input/input/loc1_ZOOP_run83_janprof.bin',
(PID.TID 0000.0001) ># tracer 9 - ZOO1N
(PID.TID 0000.0001) > PTRACERS_names(9)='ZOO1N',
(PID.TID 0000.0001) > PTRACERS_units(9)='mmol N/m^3'
(PID.TID 0000.0001) > PTRACERS_advScheme(9)=33,
(PID.TID 0000.0001) > PTRACERS_diffKh(9)=0.E3,
(PID.TID 0000.0001) > PTRACERS_diffKr(9)=1.E-5,
(PID.TID 0000.0001) > PTRACERS_useGMRedi(9)=.FALSE. ,
(PID.TID 0000.0001) > PTRACERS_useKPP(9)=.FALSE.  ,
(PID.TID 0000.0001) > PTRACERS_initialFile(9)='../input/input/loc1_ZOON_run83_janprof.bin',
(PID.TID 0000.0001) ># tracer 10 - ZOO1Fe
(PID.TID 0000.0001) > PTRACERS_names(10)='ZOO1Fe',
(PID.TID 0000.0001) > PTRACERS_units(10)='mmol Fe/m^3'
(PID.TID 0000.0001) > PTRACERS_advScheme(10)=33,
(PID.TID 0000.0001) > PTRACERS_diffKh(10)=0.E3,
(PID.TID 0000.0001) > PTRACERS_diffKr(10)=1.E-5,
(PID.TID 0000.0001) > PTRACERS_useGMRedi(10)=.FALSE. ,
(PID.TID 0000.0001) > PTRACERS_useKPP(10)=.FALSE.  ,
(PID.TID 0000.0001) > PTRACERS_initialFile(10)='../input/input/loc1_ZOOFe_run83_janprof.bin',
(PID.TID 0000.0001) ># tracer 11 - ZOO1Si
(PID.TID 0000.0001) > PTRACERS_names(11)='ZOO1Si',
(PID.TID 0000.0001) > PTRACERS_units(11)='mmol Si/m^3'
(PID.TID 0000.0001) > PTRACERS_advScheme(11)=33,
(PID.TID 0000.0001) > PTRACERS_diffKh(11)=0.E3,
(PID.TID 0000.0001) > PTRACERS_diffKr(11)=1.E-5,
(PID.TID 0000.0001) > PTRACERS_useGMRedi(11)=.FALSE. ,
(PID.TID 0000.0001) > PTRACERS_useKPP(11)=.FALSE.  ,
(PID.TID 0000.0001) > PTRACERS_initialFile(11)='../input/input/loc1_ZOOSi_run83_janprof.bin',
(PID.TID 0000.0001) ># tracer 12 - ZOO2P
(PID.TID 0000.0001) > PTRACERS_names(12)='ZOO2P',
(PID.TID 0000.0001) > PTRACERS_units(12)='mmol P/m^3',
(PID.TID 0000.0001) > PTRACERS_advScheme(12)=33,
(PID.TID 0000.0001) > PTRACERS_diffKh(12)=0.E3,
(PID.TID 0000.0001) > PTRACERS_diffKr(12)=1.E-5,
(PID.TID 0000.0001) > PTRACERS_useGMRedi(12)=.FALSE. ,
(PID.TID 0000.0001) > PTRACERS_useKPP(12)=.FALSE.  ,
(PID.TID 0000.0001) > PTRACERS_initialFile(12)='../input/input/loc1_ZOOP_run83_janprof.bin',
(PID.TID 0000.0001) ># tracer 13 - ZOO2N
(PID.TID 0000.0001) > PTRACERS_names(13)='ZOO2N',
(PID.TID 0000.0001) > PTRACERS_units(13)='mmol N/m^3'
(PID.TID 0000.0001) > PTRACERS_advScheme(13)=33,
(PID.TID 0000.0001) > PTRACERS_diffKh(13)=0.E3,
(PID.TID 0000.0001) > PTRACERS_diffKr(13)=1.E-5,
(PID.TID 0000.0001) > PTRACERS_useGMRedi(13)=.FALSE. ,
(PID.TID 0000.0001) > PTRACERS_useKPP(13)=.FALSE.  ,
(PID.TID 0000.0001) > PTRACERS_initialFile(13)='../input/input/loc1_ZOON_run83_janprof.bin',
(PID.TID 0000.0001) ># tracer 14 - ZOO2Fe
(PID.TID 0000.0001) > PTRACERS_names(14)='ZOO2Fe',
(PID.TID 0000.0001) > PTRACERS_units(14)='mmol Fe/m^3'
(PID.TID 0000.0001) > PTRACERS_advScheme(14)=33,
(PID.TID 0000.0001) > PTRACERS_diffKh(14)=0.E3,
(PID.TID 0000.0001) > PTRACERS_diffKr(14)=1.E-5,
(PID.TID 0000.0001) > PTRACERS_useGMRedi(14)=.FALSE. ,
(PID.TID 0000.0001) > PTRACERS_useKPP(14)=.FALSE.  ,
(PID.TID 0000.0001) > PTRACERS_initialFile(14)='../input/input/loc1_ZOOFe_run83_janprof.bin',
(PID.TID 0000.0001) ># tracer 15 - ZOO2Si
(PID.TID 0000.0001) > PTRACERS_names(15)='ZOO2Si',
(PID.TID 0000.0001) > PTRACERS_units(15)='mmol Si/m^3'
(PID.TID 0000.0001) > PTRACERS_advScheme(15)=33,
(PID.TID 0000.0001) > PTRACERS_diffKh(15)=0.E3,
(PID.TID 0000.0001) > PTRACERS_diffKr(15)=1.E-5,
(PID.TID 0000.0001) > PTRACERS_useGMRedi(15)=.FALSE. ,
(PID.TID 0000.0001) > PTRACERS_useKPP(15)=.FALSE.  ,
(PID.TID 0000.0001) > PTRACERS_initialFile(15)='../input/input/loc1_ZOOSi_run83_janprof.bin',
(PID.TID 0000.0001) ># tracer 16 - POP
(PID.TID 0000.0001) > PTRACERS_names(16)='POP',
(PID.TID 0000.0001) > PTRACERS_units(16)='mmol P/m^3',
(PID.TID 0000.0001) > PTRACERS_advScheme(16)=33,
(PID.TID 0000.0001) > PTRACERS_diffKh(16)=0.E3,
(PID.TID 0000.0001) > PTRACERS_diffKr(16)=1.E-5,
(PID.TID 0000.0001) > PTRACERS_useGMRedi(16)=.FALSE. ,
(PID.TID 0000.0001) > PTRACERS_useKPP(16)=.FALSE.  ,
(PID.TID 0000.0001) > PTRACERS_initialFile(16)='../input/input/loc1_POP_run83_janprof.bin',
(PID.TID 0000.0001) ># tracer 17 - PON
(PID.TID 0000.0001) > PTRACERS_names(17)='PON',
(PID.TID 0000.0001) > PTRACERS_units(17)='mmol N/m^3',
(PID.TID 0000.0001) > PTRACERS_advScheme(17)=33,
(PID.TID 0000.0001) > PTRACERS_diffKh(17)=0.E3,
(PID.TID 0000.0001) > PTRACERS_diffKr(17)=1.E-5,
(PID.TID 0000.0001) > PTRACERS_useGMRedi(17)=.FALSE. ,
(PID.TID 0000.0001) > PTRACERS_useKPP(17)=.FALSE.  ,
(PID.TID 0000.0001) > PTRACERS_initialFile(17)='../input/input/loc1_PON_run83_janprof.bin',
(PID.TID 0000.0001) ># tracer 18 - POFe
(PID.TID 0000.0001) > PTRACERS_names(18)='POFe',
(PID.TID 0000.0001) > PTRACERS_units(18)='mmol Fe/m^3'
(PID.TID 0000.0001) > PTRACERS_advScheme(18)=33,
(PID.TID 0000.0001) > PTRACERS_diffKh(18)=0.E3,
(PID.TID 0000.0001) > PTRACERS_diffKr(18)=1.E-5,
(PID.TID 0000.0001) > PTRACERS_useGMRedi(18)=.FALSE. ,
(PID.TID 0000.0001) > PTRACERS_useKPP(18)=.FALSE.  ,
(PID.TID 0000.0001) > PTRACERS_initialFile(18)='../input/input/loc1_POFe_run83_janprof.bin',
(PID.TID 0000.0001) ># tracer 19 - POSi
(PID.TID 0000.0001) > PTRACERS_names(19)='POSi',
(PID.TID 0000.0001) > PTRACERS_units(19)='mmol Si/m^3'
(PID.TID 0000.0001) > PTRACERS_advScheme(19)=33,
(PID.TID 0000.0001) > PTRACERS_diffKh(19)=0.E3,
(PID.TID 0000.0001) > PTRACERS_diffKr(19)=1.E-5,
(PID.TID 0000.0001) > PTRACERS_useGMRedi(19)=.FALSE. ,
(PID.TID 0000.0001) > PTRACERS_useKPP(19)=.FALSE.  ,
(PID.TID 0000.0001) > PTRACERS_initialFile(19)='../input/input/loc1_POSi_run83_janprof.bin',
(PID.TID 0000.0001) ># tracer 20 - NH4
(PID.TID 0000.0001) > PTRACERS_names(20)='NH4',
(PID.TID 0000.0001) > PTRACERS_units(20)='mmol N/m^3'
(PID.TID 0000.0001) > PTRACERS_advScheme(20)=33,
(PID.TID 0000.0001) > PTRACERS_diffKh(20)=0.E3,
(PID.TID 0000.0001) > PTRACERS_diffKr(20)=1.E-5,
(PID.TID 0000.0001) > PTRACERS_useGMRedi(20)=.FALSE. ,
(PID.TID 0000.0001) > PTRACERS_useKPP(20)=.FALSE.  ,
(PID.TID 0000.0001) > PTRACERS_initialFile(20)='../input/input/loc1_NH4_run83_janprof.bin',
(PID.TID 0000.0001) ># tracer 21 - NO2
(PID.TID 0000.0001) > PTRACERS_names(21)='NO2',
(PID.TID 0000.0001) > PTRACERS_units(21)='mmol N/m^3'
(PID.TID 0000.0001) > PTRACERS_advScheme(21)=33,
(PID.TID 0000.0001) > PTRACERS_diffKh(21)=0.E3,
(PID.TID 0000.0001) > PTRACERS_diffKr(21)=1.E-5,
(PID.TID 0000.0001) > PTRACERS_useGMRedi(21)=.FALSE. ,
(PID.TID 0000.0001) > PTRACERS_useKPP(21)=.FALSE.  ,
(PID.TID 0000.0001) > PTRACERS_initialFile(21)='../input/input/loc1_NO2_run83_janprof.bin',
(PID.TID 0000.0001) ># tracer 22 - PHYT01
(PID.TID 0000.0001) > PTRACERS_names(22)='Phy1',
(PID.TID 0000.0001) > PTRACERS_units(22)='mmol P/m^3'
(PID.TID 0000.0001) > PTRACERS_advScheme(22)=33,
(PID.TID 0000.0001) > PTRACERS_diffKh(22)=0.E3,
(PID.TID 0000.0001) > PTRACERS_diffKr(22)=1.E-5,
(PID.TID 0000.0001) > PTRACERS_useGMRedi(22)=.FALSE. ,
(PID.TID 0000.0001) > PTRACERS_useKPP(22)=.FALSE.  ,
(PID.TID 0000.0001) > PTRACERS_initialFile(22)='../input/input/loc1_biomass_run83_janprof.bin',
(PID.TID 0000.0001) ># tracer 23 - PHYT02
(PID.TID 0000.0001) > PTRACERS_names(23)='Phy2',
(PID.TID 0000.0001) > PTRACERS_units(23)='mmol P/m^3'
(PID.TID 0000.0001) > PTRACERS_advScheme(23)=33,
(PID.TID 0000.0001) > PTRACERS_diffKh(23)=0.E3,
(PID.TID 0000.0001) > PTRACERS_diffKr(23)=1.E-5,
(PID.TID 0000.0001) > PTRACERS_useGMRedi(23)=.FALSE. ,
(PID.TID 0000.0001) > PTRACERS_useKPP(23)=.FALSE.  ,
(PID.TID 0000.0001) > PTRACERS_initialFile(23)='../input/input/loc1_biomass_run83_janprof.bin',
(PID.TID 0000.0001) ># tracer 24 - PHYT03
(PID.TID 0000.0001) > PTRACERS_names(24)='Phy3',
(PID.TID 0000.0001) > PTRACERS_units(24)='mmol P/m^3'
(PID.TID 0000.0001) > PTRACERS_advScheme(24)=33,
(PID.TID 0000.0001) > PTRACERS_diffKh(24)=0.E3,
(PID.TID 0000.0001) > PTRACERS_diffKr(24)=1.E-5,
(PID.TID 0000.0001) > PTRACERS_useGMRedi(24)=.FALSE. ,
(PID.TID 0000.0001) > PTRACERS_useKPP(24)=.FALSE.  ,
(PID.TID 0000.0001) > PTRACERS_initialFile(24)='../input/input/loc1_biomass_run83_janprof.bin',
(PID.TID 0000.0001) ># tracer 25 - PHYT04
(PID.TID 0000.0001) > PTRACERS_names(25)='Phy4',
(PID.TID 0000.0001) > PTRACERS_units(25)='mmol P/m^3'
(PID.TID 0000.0001) > PTRACERS_advScheme(25)=33,
(PID.TID 0000.0001) > PTRACERS_diffKh(25)=0.E3,
(PID.TID 0000.0001) > PTRACERS_diffKr(25)=1.E-5,
(PID.TID 0000.0001) > PTRACERS_useGMRedi(25)=.FALSE. ,
(PID.TID 0000.0001) > PTRACERS_useKPP(25)=.FALSE.  ,
(PID.TID 0000.0001) > PTRACERS_initialFile(25)='../input/input/loc1_biomass_run83_janprof.bin',
(PID.TID 0000.0001) ># tracer 26 - PHYT05
(PID.TID 0000.0001) > PTRACERS_names(26)='Phy5',
(PID.TID 0000.0001) > PTRACERS_units(26)='mmol P/m^3'
(PID.TID 0000.0001) > PTRACERS_advScheme(26)=33,
(PID.TID 0000.0001) > PTRACERS_diffKh(26)=0.E3,
(PID.TID 0000.0001) > PTRACERS_diffKr(26)=1.E-5,
(PID.TID 0000.0001) > PTRACERS_useGMRedi(26)=.FALSE. ,
(PID.TID 0000.0001) > PTRACERS_useKPP(26)=.FALSE.  ,
(PID.TID 0000.0001) > PTRACERS_initialFile(26)='../input/input/loc1_biomass_run83_janprof.bin',
(PID.TID 0000.0001) ># tracer 27 - PHYT06
(PID.TID 0000.0001) > PTRACERS_names(27)='Phy6',
(PID.TID 0000.0001) > PTRACERS_units(27)='mmol P/m^3'
(PID.TID 0000.0001) > PTRACERS_advScheme(27)=33,
(PID.TID 0000.0001) > PTRACERS_diffKh(27)=0.E3,
(PID.TID 0000.0001) > PTRACERS_diffKr(27)=1.E-5,
(PID.TID 0000.0001) > PTRACERS_useGMRedi(27)=.FALSE. ,
(PID.TID 0000.0001) > PTRACERS_useKPP(27)=.FALSE.  ,
(PID.TID 0000.0001) > PTRACERS_initialFile(27)='../input/input/loc1_biomass_run83_janprof.bin',
(PID.TID 0000.0001) ># tracer 28 - PHYT07
(PID.TID 0000.0001) > PTRACERS_names(28)='Phy7',
(PID.TID 0000.0001) > PTRACERS_units(28)='mmol P/m^3'
(PID.TID 0000.0001) > PTRACERS_advScheme(28)=33,
(PID.TID 0000.0001) > PTRACERS_diffKh(28)=0.E3,
(PID.TID 0000.0001) > PTRACERS_diffKr(28)=1.E-5,
(PID.TID 0000.0001) > PTRACERS_useGMRedi(28)=.FALSE. ,
(PID.TID 0000.0001) > PTRACERS_useKPP(28)=.FALSE.  ,
(PID.TID 0000.0001) > PTRACERS_initialFile(28)='../input/input/loc1_biomass_run83_janprof.bin',
(PID.TID 0000.0001) ># tracer 29 - PHYT08
(PID.TID 0000.0001) > PTRACERS_names(29)='Phy8',
(PID.TID 0000.0001) > PTRACERS_units(29)='mmol P/m^3'
(PID.TID 0000.0001) > PTRACERS_advScheme(29)=33,
(PID.TID 0000.0001) > PTRACERS_diffKh(29)=0.E3,
(PID.TID 0000.0001) > PTRACERS_diffKr(29)=1.E-5,
(PID.TID 0000.0001) > PTRACERS_useGMRedi(29)=.FALSE. ,
(PID.TID 0000.0001) > PTRACERS_useKPP(29)=.FALSE.  ,
(PID.TID 0000.0001) > PTRACERS_initialFile(29)='../input/input/loc1_biomass_run83_janprof.bin',
(PID.TID 0000.0001) ># tracer 30 - PHYT09
(PID.TID 0000.0001) > PTRACERS_names(30)='Phy9',
(PID.TID 0000.0001) > PTRACERS_units(30)='mmol P/m^3'
(PID.TID 0000.0001) > PTRACERS_advScheme(30)=33,
(PID.TID 0000.0001) > PTRACERS_diffKh(30)=0.E3,
(PID.TID 0000.0001) > PTRACERS_diffKr(30)=1.E-5,
(PID.TID 0000.0001) > PTRACERS_useGMRedi(30)=.FALSE. ,
(PID.TID 0000.0001) > PTRACERS_useKPP(30)=.FALSE.  ,
(PID.TID 0000.0001) > PTRACERS_initialFile(30)='../input/input/loc1_biomass_run83_janprof.bin',
(PID.TID 0000.0001) ># tracer 31 - PHYT10
(PID.TID 0000.0001) > PTRACERS_names(31)='Phy10',
(PID.TID 0000.0001) > PTRACERS_units(31)='mmol P/m^3'
(PID.TID 0000.0001) > PTRACERS_advScheme(31)=33,
(PID.TID 0000.0001) > PTRACERS_diffKh(31)=0.E3,
(PID.TID 0000.0001) > PTRACERS_diffKr(31)=1.E-5,
(PID.TID 0000.0001) > PTRACERS_useGMRedi(31)=.FALSE. ,
(PID.TID 0000.0001) > PTRACERS_useKPP(31)=.FALSE.  ,
(PID.TID 0000.0001) > PTRACERS_initialFile(31)='../input/input/loc1_biomass_run83_janprof.bin',
(PID.TID 0000.0001) ># tracer 32 - PHYT11
(PID.TID 0000.0001) > PTRACERS_names(32)='Phy11',
(PID.TID 0000.0001) > PTRACERS_units(32)='mmol P/m^3'
(PID.TID 0000.0001) > PTRACERS_advScheme(32)=33,
(PID.TID 0000.0001) > PTRACERS_diffKh(32)=0.E3,
(PID.TID 0000.0001) > PTRACERS_diffKr(32)=1.E-5,
(PID.TID 0000.0001) > PTRACERS_useGMRedi(32)=.FALSE. ,
(PID.TID 0000.0001) > PTRACERS_useKPP(32)=.FALSE.  ,
(PID.TID 0000.0001) > PTRACERS_initialFile(32)='../input/input/loc1_biomass_run83_janprof.bin',
(PID.TID 0000.0001) ># tracer 0 - PHYT12
(PID.TID 0000.0001) > PTRACERS_names(33)='Phy12',
(PID.TID 0000.0001) > PTRACERS_units(33)='mmol P/m^3'
(PID.TID 0000.0001) > PTRACERS_advScheme(33)=33,
(PID.TID 0000.0001) > PTRACERS_diffKh(33)=0.E3,
(PID.TID 0000.0001) > PTRACERS_diffKr(33)=1.E-5,
(PID.TID 0000.0001) > PTRACERS_useGMRedi(33)=.FALSE. ,
(PID.TID 0000.0001) > PTRACERS_useKPP(33)=.FALSE.  ,
(PID.TID 0000.0001) > PTRACERS_initialFile(33)='../input/input/loc1_biomass_run83_janprof.bin',
(PID.TID 0000.0001) ># tracer 34 - PHYT13
(PID.TID 0000.0001) > PTRACERS_names(34)='Phy13',
(PID.TID 0000.0001) > PTRACERS_units(34)='mmol P/m^3'
(PID.TID 0000.0001) > PTRACERS_advScheme(34)=33,
(PID.TID 0000.0001) > PTRACERS_diffKh(34)=0.E3,
(PID.TID 0000.0001) > PTRACERS_diffKr(34)=1.E-5,
(PID.TID 0000.0001) > PTRACERS_useGMRedi(34)=.FALSE. ,
(PID.TID 0000.0001) > PTRACERS_useKPP(34)=.FALSE.  ,
(PID.TID 0000.0001) > PTRACERS_initialFile(34)='../input/input/loc1_biomass_run83_janprof.bin',
(PID.TID 0000.0001) ># tracer 35 - PHYT14
(PID.TID 0000.0001) > PTRACERS_names(35)='Phy14',
(PID.TID 0000.0001) > PTRACERS_units(35)='mmol P/m^3'
(PID.TID 0000.0001) > PTRACERS_advScheme(35)=33,
(PID.TID 0000.0001) > PTRACERS_diffKh(35)=0.E3,
(PID.TID 0000.0001) > PTRACERS_diffKr(35)=1.E-5,
(PID.TID 0000.0001) > PTRACERS_useGMRedi(35)=.FALSE. ,
(PID.TID 0000.0001) > PTRACERS_useKPP(35)=.FALSE.  ,
(PID.TID 0000.0001) > PTRACERS_initialFile(35)='../input/input/loc1_biomass_run83_janprof.bin',
(PID.TID 0000.0001) ># tracer 36 - PHYT15
(PID.TID 0000.0001) > PTRACERS_names(36)='Phy15',
(PID.TID 0000.0001) > PTRACERS_units(36)='mmol P/m^3'
(PID.TID 0000.0001) > PTRACERS_advScheme(36)=33,
(PID.TID 0000.0001) > PTRACERS_diffKh(36)=0.E3,
(PID.TID 0000.0001) > PTRACERS_diffKr(36)=1.E-5,
(PID.TID 0000.0001) > PTRACERS_useGMRedi(36)=.FALSE. ,
(PID.TID 0000.0001) > PTRACERS_useKPP(36)=.FALSE.  ,
(PID.TID 0000.0001) > PTRACERS_initialFile(36)='../input/input/loc1_biomass_run83_janprof.bin',
(PID.TID 0000.0001) ># tracer 37 - PHYT16
(PID.TID 0000.0001) > PTRACERS_names(37)='Phy16',
(PID.TID 0000.0001) > PTRACERS_units(37)='mmol P/m^3'
(PID.TID 0000.0001) > PTRACERS_advScheme(37)=33,
(PID.TID 0000.0001) > PTRACERS_diffKh(37)=0.E3,
(PID.TID 0000.0001) > PTRACERS_diffKr(37)=1.E-5,
(PID.TID 0000.0001) > PTRACERS_useGMRedi(37)=.FALSE. ,
(PID.TID 0000.0001) > PTRACERS_useKPP(37)=.FALSE.  ,
(PID.TID 0000.0001) > PTRACERS_initialFile(37)='../input/input/loc1_biomass_run83_janprof.bin',
(PID.TID 0000.0001) ># tracer 38 - PHYT17
(PID.TID 0000.0001) > PTRACERS_names(38)='Phy17',
(PID.TID 0000.0001) > PTRACERS_units(38)='mmol P/m^3'
(PID.TID 0000.0001) > PTRACERS_advScheme(38)=33,
(PID.TID 0000.0001) > PTRACERS_diffKh(38)=0.E3,
(PID.TID 0000.0001) > PTRACERS_diffKr(38)=1.E-5,
(PID.TID 0000.0001) > PTRACERS_useGMRedi(38)=.FALSE. ,
(PID.TID 0000.0001) > PTRACERS_useKPP(38)=.FALSE.  ,
(PID.TID 0000.0001) > PTRACERS_initialFile(38)='../input/input/loc1_biomass_run83_janprof.bin',
(PID.TID 0000.0001) ># tracer 39 - PHYT18
(PID.TID 0000.0001) > PTRACERS_names(39)='Phy18',
(PID.TID 0000.0001) > PTRACERS_units(39)='mmol P/m^3'
(PID.TID 0000.0001) > PTRACERS_advScheme(39)=33,
(PID.TID 0000.0001) > PTRACERS_diffKh(39)=0.E3,
(PID.TID 0000.0001) > PTRACERS_diffKr(39)=1.E-5,
(PID.TID 0000.0001) > PTRACERS_useGMRedi(39)=.FALSE. ,
(PID.TID 0000.0001) > PTRACERS_useKPP(39)=.FALSE.  ,
(PID.TID 0000.0001) > PTRACERS_initialFile(39)='../input/input/loc1_biomass_run83_janprof.bin',
(PID.TID 0000.0001) ># tracer 40 - PHYT19
(PID.TID 0000.0001) > PTRACERS_names(40)='Phy19',
(PID.TID 0000.0001) > PTRACERS_units(40)='mmol P/m^3'
(PID.TID 0000.0001) > PTRACERS_advScheme(40)=33,
(PID.TID 0000.0001) > PTRACERS_diffKh(40)=0.E3,
(PID.TID 0000.0001) > PTRACERS_diffKr(40)=1.E-5,
(PID.TID 0000.0001) > PTRACERS_useGMRedi(40)=.FALSE. ,
(PID.TID 0000.0001) > PTRACERS_useKPP(40)=.FALSE.  ,
(PID.TID 0000.0001) > PTRACERS_initialFile(40)='../input/input/loc1_biomass_run83_janprof.bin',
(PID.TID 0000.0001) ># tracer 41 - PHYT20
(PID.TID 0000.0001) > PTRACERS_names(41)='Phy20',
(PID.TID 0000.0001) > PTRACERS_units(41)='mmol P/m^3'
(PID.TID 0000.0001) > PTRACERS_advScheme(41)=33,
(PID.TID 0000.0001) > PTRACERS_diffKh(41)=0.E3,
(PID.TID 0000.0001) > PTRACERS_diffKr(41)=1.E-5,
(PID.TID 0000.0001) > PTRACERS_useGMRedi(41)=.FALSE. ,
(PID.TID 0000.0001) > PTRACERS_useKPP(41)=.FALSE.  ,
(PID.TID 0000.0001) > PTRACERS_initialFile(41)='../input/input/loc1_biomass_run83_janprof.bin',
(PID.TID 0000.0001) ># tracer 42 - PHYT21
(PID.TID 0000.0001) > PTRACERS_names(42)='Phy21',
(PID.TID 0000.0001) > PTRACERS_units(42)='mmol P/m^3'
(PID.TID 0000.0001) > PTRACERS_advScheme(42)=33,
(PID.TID 0000.0001) > PTRACERS_diffKh(42)=0.E3,
(PID.TID 0000.0001) > PTRACERS_diffKr(42)=1.E-5,
(PID.TID 0000.0001) > PTRACERS_useGMRedi(42)=.FALSE. ,
(PID.TID 0000.0001) > PTRACERS_useKPP(42)=.FALSE.  ,
(PID.TID 0000.0001) > PTRACERS_initialFile(42)='../input/input/loc1_biomass_run83_janprof.bin',
(PID.TID 0000.0001) ># tracer 43 - PHYT22
(PID.TID 0000.0001) > PTRACERS_names(43)='Phy22',
(PID.TID 0000.0001) > PTRACERS_units(43)='mmol P/m^3'
(PID.TID 0000.0001) > PTRACERS_advScheme(43)=33,
(PID.TID 0000.0001) > PTRACERS_diffKh(43)=0.E3,
(PID.TID 0000.0001) > PTRACERS_diffKr(43)=1.E-5,
(PID.TID 0000.0001) > PTRACERS_useGMRedi(43)=.FALSE. ,
(PID.TID 0000.0001) > PTRACERS_useKPP(43)=.FALSE.  ,
(PID.TID 0000.0001) > PTRACERS_initialFile(43)='../input/input/loc1_biomass_run83_janprof.bin',
(PID.TID 0000.0001) ># tracer 44 - PHYT23
(PID.TID 0000.0001) > PTRACERS_names(44)='Phy23',
(PID.TID 0000.0001) > PTRACERS_units(44)='mmol P/m^3'
(PID.TID 0000.0001) > PTRACERS_advScheme(44)=33,
(PID.TID 0000.0001) > PTRACERS_diffKh(44)=0.E3,
(PID.TID 0000.0001) > PTRACERS_diffKr(44)=1.E-5,
(PID.TID 0000.0001) > PTRACERS_useGMRedi(44)=.FALSE. ,
(PID.TID 0000.0001) > PTRACERS_useKPP(44)=.FALSE.  ,
(PID.TID 0000.0001) > PTRACERS_initialFile(44)='../input/input/loc1_biomass_run83_janprof.bin',
(PID.TID 0000.0001) ># tracer 45 - PHYT24
(PID.TID 0000.0001) > PTRACERS_names(45)='Phy24',
(PID.TID 0000.0001) > PTRACERS_units(45)='mmol P/m^3'
(PID.TID 0000.0001) > PTRACERS_advScheme(45)=33,
(PID.TID 0000.0001) > PTRACERS_diffKh(45)=0.E3,
(PID.TID 0000.0001) > PTRACERS_diffKr(45)=1.E-5,
(PID.TID 0000.0001) > PTRACERS_useGMRedi(45)=.FALSE. ,
(PID.TID 0000.0001) > PTRACERS_useKPP(45)=.FALSE.  ,
(PID.TID 0000.0001) > PTRACERS_initialFile(45)='../input/input/loc1_biomass_run83_janprof.bin',
(PID.TID 0000.0001) ># tracer 46 - PHYT25
(PID.TID 0000.0001) > PTRACERS_names(46)='Phy25',
(PID.TID 0000.0001) > PTRACERS_units(46)='mmol P/m^3'
(PID.TID 0000.0001) > PTRACERS_advScheme(46)=33,
(PID.TID 0000.0001) > PTRACERS_diffKh(46)=0.E3,
(PID.TID 0000.0001) > PTRACERS_diffKr(46)=1.E-5,
(PID.TID 0000.0001) > PTRACERS_useGMRedi(46)=.FALSE. ,
(PID.TID 0000.0001) > PTRACERS_useKPP(46)=.FALSE.  ,
(PID.TID 0000.0001) > PTRACERS_initialFile(46)='../input/input/loc1_biomass_run83_janprof.bin',
(PID.TID 0000.0001) ># tracer 47 - PHYT26
(PID.TID 0000.0001) > PTRACERS_names(47)='Phy26',
(PID.TID 0000.0001) > PTRACERS_units(47)='mmol P/m^3'
(PID.TID 0000.0001) > PTRACERS_advScheme(47)=33,
(PID.TID 0000.0001) > PTRACERS_diffKh(47)=0.E3,
(PID.TID 0000.0001) > PTRACERS_diffKr(47)=1.E-5,
(PID.TID 0000.0001) > PTRACERS_useGMRedi(47)=.FALSE. ,
(PID.TID 0000.0001) > PTRACERS_useKPP(47)=.FALSE.  ,
(PID.TID 0000.0001) > PTRACERS_initialFile(47)='../input/input/loc1_biomass_run83_janprof.bin',
(PID.TID 0000.0001) ># tracer 48 - PHYT27
(PID.TID 0000.0001) > PTRACERS_names(48)='Phy27',
(PID.TID 0000.0001) > PTRACERS_units(48)='mmol P/m^3'
(PID.TID 0000.0001) > PTRACERS_advScheme(48)=33,
(PID.TID 0000.0001) > PTRACERS_diffKh(48)=0.E3,
(PID.TID 0000.0001) > PTRACERS_diffKr(48)=1.E-5,
(PID.TID 0000.0001) > PTRACERS_useGMRedi(48)=.FALSE. ,
(PID.TID 0000.0001) > PTRACERS_useKPP(48)=.FALSE.  ,
(PID.TID 0000.0001) > PTRACERS_initialFile(48)='../input/input/loc1_biomass_run83_janprof.bin',
(PID.TID 0000.0001) ># tracer 49 - PHYT28
(PID.TID 0000.0001) > PTRACERS_names(49)='Phy28',
(PID.TID 0000.0001) > PTRACERS_units(49)='mmol P/m^3'
(PID.TID 0000.0001) > PTRACERS_advScheme(49)=33,
(PID.TID 0000.0001) > PTRACERS_diffKh(49)=0.E3,
(PID.TID 0000.0001) > PTRACERS_diffKr(49)=1.E-5,
(PID.TID 0000.0001) > PTRACERS_useGMRedi(49)=.FALSE. ,
(PID.TID 0000.0001) > PTRACERS_useKPP(49)=.FALSE.  ,
(PID.TID 0000.0001) > PTRACERS_initialFile(49)='../input/input/loc1_biomass_run83_janprof.bin',
(PID.TID 0000.0001) ># tracer 50 - PHYT29
(PID.TID 0000.0001) > PTRACERS_names(50)='Phy29',
(PID.TID 0000.0001) > PTRACERS_units(50)='mmol P/m^3'
(PID.TID 0000.0001) > PTRACERS_advScheme(50)=33,
(PID.TID 0000.0001) > PTRACERS_diffKh(50)=0.E3,
(PID.TID 0000.0001) > PTRACERS_diffKr(50)=1.E-5,
(PID.TID 0000.0001) > PTRACERS_useGMRedi(50)=.FALSE. ,
(PID.TID 0000.0001) > PTRACERS_useKPP(50)=.FALSE.  ,
(PID.TID 0000.0001) > PTRACERS_initialFile(50)='../input/input/loc1_biomass_run83_janprof.bin',
(PID.TID 0000.0001) ># tracer 51 - PHY30
(PID.TID 0000.0001) > PTRACERS_names(51)='Phy30',
(PID.TID 0000.0001) > PTRACERS_units(51)='mmol P/m^3'
(PID.TID 0000.0001) > PTRACERS_advScheme(51)=33,
(PID.TID 0000.0001) > PTRACERS_diffKh(51)=0.E3,
(PID.TID 0000.0001) > PTRACERS_diffKr(51)=1.E-5,
(PID.TID 0000.0001) > PTRACERS_useGMRedi(51)=.FALSE. ,
(PID.TID 0000.0001) > PTRACERS_useKPP(51)=.FALSE.  ,
(PID.TID 0000.0001) > PTRACERS_initialFile(51)='../input/input/loc1_biomass_run83_janprof.bin',
(PID.TID 0000.0001) ># tracer 52 - PHY31
(PID.TID 0000.0001) > PTRACERS_names(52)='Phy31',
(PID.TID 0000.0001) > PTRACERS_units(52)='mmol P/m^3'
(PID.TID 0000.0001) > PTRACERS_advScheme(52)=33,
(PID.TID 0000.0001) > PTRACERS_diffKh(52)=0.E3,
(PID.TID 0000.0001) > PTRACERS_diffKr(52)=1.E-5,
(PID.TID 0000.0001) > PTRACERS_useGMRedi(52)=.FALSE. ,
(PID.TID 0000.0001) > PTRACERS_useKPP(52)=.FALSE.  ,
(PID.TID 0000.0001) > PTRACERS_initialFile(52)='../input/input/loc1_biomass_run83_janprof.bin',
(PID.TID 0000.0001) ># tracer 53 - PHY32
(PID.TID 0000.0001) > PTRACERS_names(53)='Phy32',
(PID.TID 0000.0001) > PTRACERS_units(53)='mmol P/m^3'
(PID.TID 0000.0001) > PTRACERS_advScheme(53)=33,
(PID.TID 0000.0001) > PTRACERS_diffKh(53)=0.E3,
(PID.TID 0000.0001) > PTRACERS_diffKr(53)=1.E-5,
(PID.TID 0000.0001) > PTRACERS_useGMRedi(53)=.FALSE. ,
(PID.TID 0000.0001) > PTRACERS_useKPP(53)=.FALSE.  ,
(PID.TID 0000.0001) > PTRACERS_initialFile(53)='../input/input/loc1_biomass_run83_janprof.bin',
(PID.TID 0000.0001) ># tracer 54 - PHY33
(PID.TID 0000.0001) > PTRACERS_names(54)='Phy33',
(PID.TID 0000.0001) > PTRACERS_units(54)='mmol P/m^3'
(PID.TID 0000.0001) > PTRACERS_advScheme(54)=33,
(PID.TID 0000.0001) > PTRACERS_diffKh(54)=0.E3,
(PID.TID 0000.0001) > PTRACERS_diffKr(54)=1.E-5,
(PID.TID 0000.0001) > PTRACERS_useGMRedi(54)=.FALSE. ,
(PID.TID 0000.0001) > PTRACERS_useKPP(54)=.FALSE.  ,
(PID.TID 0000.0001) > PTRACERS_initialFile(54)='../input/input/loc1_biomass_run83_janprof.bin',
(PID.TID 0000.0001) ># tracer 55 - PHY34
(PID.TID 0000.0001) > PTRACERS_names(55)='Phy34',
(PID.TID 0000.0001) > PTRACERS_units(55)='mmol P/m^3'
(PID.TID 0000.0001) > PTRACERS_advScheme(55)=33,
(PID.TID 0000.0001) > PTRACERS_diffKh(55)=0.E3,
(PID.TID 0000.0001) > PTRACERS_diffKr(55)=1.E-5,
(PID.TID 0000.0001) > PTRACERS_useGMRedi(55)=.FALSE. ,
(PID.TID 0000.0001) > PTRACERS_useKPP(55)=.FALSE.  ,
(PID.TID 0000.0001) > PTRACERS_initialFile(55)='../input/input/loc1_biomass_run83_janprof.bin',
(PID.TID 0000.0001) ># tracer 56 - PHY35
(PID.TID 0000.0001) > PTRACERS_names(56)='Phy35',
(PID.TID 0000.0001) > PTRACERS_units(56)='mmol P/m^3'
(PID.TID 0000.0001) > PTRACERS_advScheme(56)=33,
(PID.TID 0000.0001) > PTRACERS_diffKh(56)=0.E3,
(PID.TID 0000.0001) > PTRACERS_diffKr(56)=1.E-5,
(PID.TID 0000.0001) > PTRACERS_useGMRedi(56)=.FALSE. ,
(PID.TID 0000.0001) > PTRACERS_useKPP(56)=.FALSE.  ,
(PID.TID 0000.0001) > PTRACERS_initialFile(56)='../input/input/loc1_biomass_run83_janprof.bin',
(PID.TID 0000.0001) ># tracer 57 - PHY36
(PID.TID 0000.0001) > PTRACERS_names(57)='Phy36',
(PID.TID 0000.0001) > PTRACERS_units(57)='mmol P/m^3'
(PID.TID 0000.0001) > PTRACERS_advScheme(57)=33,
(PID.TID 0000.0001) > PTRACERS_diffKh(57)=0.E3,
(PID.TID 0000.0001) > PTRACERS_diffKr(57)=1.E-5,
(PID.TID 0000.0001) > PTRACERS_useGMRedi(57)=.FALSE. ,
(PID.TID 0000.0001) > PTRACERS_useKPP(57)=.FALSE.  ,
(PID.TID 0000.0001) > PTRACERS_initialFile(57)='../input/input/loc1_biomass_run83_janprof.bin',
(PID.TID 0000.0001) ># tracer 58 - PHY37
(PID.TID 0000.0001) > PTRACERS_names(58)='Phy37',
(PID.TID 0000.0001) > PTRACERS_units(58)='mmol P/m^3'
(PID.TID 0000.0001) > PTRACERS_advScheme(58)=33,
(PID.TID 0000.0001) > PTRACERS_diffKh(58)=0.E3,
(PID.TID 0000.0001) > PTRACERS_diffKr(58)=1.E-5,
(PID.TID 0000.0001) > PTRACERS_useGMRedi(58)=.FALSE. ,
(PID.TID 0000.0001) > PTRACERS_useKPP(58)=.FALSE.  ,
(PID.TID 0000.0001) > PTRACERS_initialFile(58)='../input/input/loc1_biomass_run83_janprof.bin',
(PID.TID 0000.0001) ># tracer 59 - PHY38
(PID.TID 0000.0001) > PTRACERS_names(59)='Phy38',
(PID.TID 0000.0001) > PTRACERS_units(59)='mmol P/m^3'
(PID.TID 0000.0001) > PTRACERS_advScheme(59)=33,
(PID.TID 0000.0001) > PTRACERS_diffKh(59)=0.E3,
(PID.TID 0000.0001) > PTRACERS_diffKr(59)=1.E-5,
(PID.TID 0000.0001) > PTRACERS_useGMRedi(59)=.FALSE. ,
(PID.TID 0000.0001) > PTRACERS_useKPP(59)=.FALSE.  ,
(PID.TID 0000.0001) > PTRACERS_initialFile(59)='../input/input/loc1_biomass_run83_janprof.bin',
(PID.TID 0000.0001) ># tracer 60 - PHY39
(PID.TID 0000.0001) > PTRACERS_names(60)='Phy39',
(PID.TID 0000.0001) > PTRACERS_units(60)='mmol P/m^3'
(PID.TID 0000.0001) > PTRACERS_advScheme(60)=33,
(PID.TID 0000.0001) > PTRACERS_diffKh(60)=0.E3,
(PID.TID 0000.0001) > PTRACERS_diffKr(60)=1.E-5,
(PID.TID 0000.0001) > PTRACERS_useGMRedi(60)=.FALSE. ,
(PID.TID 0000.0001) > PTRACERS_useKPP(60)=.FALSE.  ,
(PID.TID 0000.0001) > PTRACERS_initialFile(60)='../input/input/loc1_biomass_run83_janprof.bin',
(PID.TID 0000.0001) ># tracer 61 - PHY40
(PID.TID 0000.0001) > PTRACERS_names(61)='Phy40',
(PID.TID 0000.0001) > PTRACERS_units(61)='mmol P/m^3'
(PID.TID 0000.0001) > PTRACERS_advScheme(61)=33,
(PID.TID 0000.0001) > PTRACERS_diffKh(61)=0.E3,
(PID.TID 0000.0001) > PTRACERS_diffKr(61)=1.E-5,
(PID.TID 0000.0001) > PTRACERS_useGMRedi(61)=.FALSE. ,
(PID.TID 0000.0001) > PTRACERS_useKPP(61)=.FALSE.  ,
(PID.TID 0000.0001) > PTRACERS_initialFile(61)='../input/input/loc1_biomass_run83_janprof.bin',
(PID.TID 0000.0001) ># tracer 62 - PHY41
(PID.TID 0000.0001) > PTRACERS_names(62)='Phy41',
(PID.TID 0000.0001) > PTRACERS_units(62)='mmol P/m^3'
(PID.TID 0000.0001) > PTRACERS_advScheme(62)=33,
(PID.TID 0000.0001) > PTRACERS_diffKh(62)=0.E3,
(PID.TID 0000.0001) > PTRACERS_diffKr(62)=1.E-5,
(PID.TID 0000.0001) > PTRACERS_useGMRedi(62)=.FALSE. ,
(PID.TID 0000.0001) > PTRACERS_useKPP(62)=.FALSE.  ,
(PID.TID 0000.0001) > PTRACERS_initialFile(62)='../input/input/loc1_biomass_run83_janprof.bin',
(PID.TID 0000.0001) ># tracer 63 - PHY42
(PID.TID 0000.0001) > PTRACERS_names(63)='Phy42',
(PID.TID 0000.0001) > PTRACERS_units(63)='mmol P/m^3'
(PID.TID 0000.0001) > PTRACERS_advScheme(63)=33,
(PID.TID 0000.0001) > PTRACERS_diffKh(63)=0.E3,
(PID.TID 0000.0001) > PTRACERS_diffKr(63)=1.E-5,
(PID.TID 0000.0001) > PTRACERS_useGMRedi(63)=.FALSE. ,
(PID.TID 0000.0001) > PTRACERS_useKPP(63)=.FALSE.  ,
(PID.TID 0000.0001) > PTRACERS_initialFile(63)='../input/input/loc1_biomass_run83_janprof.bin',
(PID.TID 0000.0001) ># tracer 64 - PHY43
(PID.TID 0000.0001) > PTRACERS_names(64)='Phy43',
(PID.TID 0000.0001) > PTRACERS_units(64)='mmol P/m^3'
(PID.TID 0000.0001) > PTRACERS_advScheme(64)=33,
(PID.TID 0000.0001) > PTRACERS_diffKh(64)=0.E3,
(PID.TID 0000.0001) > PTRACERS_diffKr(64)=1.E-5,
(PID.TID 0000.0001) > PTRACERS_useGMRedi(64)=.FALSE. ,
(PID.TID 0000.0001) > PTRACERS_useKPP(64)=.FALSE.  ,
(PID.TID 0000.0001) > PTRACERS_initialFile(64)='../input/input/loc1_biomass_run83_janprof.bin',
(PID.TID 0000.0001) ># tracer 65 - PHY44
(PID.TID 0000.0001) > PTRACERS_names(65)='Phy44',
(PID.TID 0000.0001) > PTRACERS_units(65)='mmol P/m^3'
(PID.TID 0000.0001) > PTRACERS_advScheme(65)=33,
(PID.TID 0000.0001) > PTRACERS_diffKh(65)=0.E3,
(PID.TID 0000.0001) > PTRACERS_diffKr(65)=1.E-5,
(PID.TID 0000.0001) > PTRACERS_useGMRedi(65)=.FALSE. ,
(PID.TID 0000.0001) > PTRACERS_useKPP(65)=.FALSE.  ,
(PID.TID 0000.0001) > PTRACERS_initialFile(65)='../input/input/loc1_biomass_run83_janprof.bin',
(PID.TID 0000.0001) ># tracer 66 - PHY45
(PID.TID 0000.0001) > PTRACERS_names(66)='Phy45',
(PID.TID 0000.0001) > PTRACERS_units(66)='mmol P/m^3'
(PID.TID 0000.0001) > PTRACERS_advScheme(66)=33,
(PID.TID 0000.0001) > PTRACERS_diffKh(66)=0.E3,
(PID.TID 0000.0001) > PTRACERS_diffKr(66)=1.E-5,
(PID.TID 0000.0001) > PTRACERS_useGMRedi(66)=.FALSE. ,
(PID.TID 0000.0001) > PTRACERS_useKPP(66)=.FALSE.  ,
(PID.TID 0000.0001) > PTRACERS_initialFile(66)='../input/input/loc1_biomass_run83_janprof.bin',
(PID.TID 0000.0001) ># tracer 67 - PHY46
(PID.TID 0000.0001) > PTRACERS_names(67)='Phy46',
(PID.TID 0000.0001) > PTRACERS_units(67)='mmol P/m^3'
(PID.TID 0000.0001) > PTRACERS_advScheme(67)=33,
(PID.TID 0000.0001) > PTRACERS_diffKh(67)=0.E3,
(PID.TID 0000.0001) > PTRACERS_diffKr(67)=1.E-5,
(PID.TID 0000.0001) > PTRACERS_useGMRedi(67)=.FALSE. ,
(PID.TID 0000.0001) > PTRACERS_useKPP(67)=.FALSE.  ,
(PID.TID 0000.0001) > PTRACERS_initialFile(67)='../input/input/loc1_biomass_run83_janprof.bin',
(PID.TID 0000.0001) ># tracer 68 - PHY47
(PID.TID 0000.0001) > PTRACERS_names(68)='Phy47',
(PID.TID 0000.0001) > PTRACERS_units(68)='mmol P/m^3'
(PID.TID 0000.0001) > PTRACERS_advScheme(68)=33,
(PID.TID 0000.0001) > PTRACERS_diffKh(68)=0.E3,
(PID.TID 0000.0001) > PTRACERS_diffKr(68)=1.E-5,
(PID.TID 0000.0001) > PTRACERS_useGMRedi(68)=.FALSE. ,
(PID.TID 0000.0001) > PTRACERS_useKPP(68)=.FALSE.  ,
(PID.TID 0000.0001) > PTRACERS_initialFile(68)='../input/input/loc1_biomass_run83_janprof.bin',
(PID.TID 0000.0001) ># tracer 69 - PHY48
(PID.TID 0000.0001) > PTRACERS_names(69)='Phy48',
(PID.TID 0000.0001) > PTRACERS_units(69)='mmol P/m^3'
(PID.TID 0000.0001) > PTRACERS_advScheme(69)=33,
(PID.TID 0000.0001) > PTRACERS_diffKh(69)=0.E3,
(PID.TID 0000.0001) > PTRACERS_diffKr(69)=1.E-5,
(PID.TID 0000.0001) > PTRACERS_useGMRedi(69)=.FALSE. ,
(PID.TID 0000.0001) > PTRACERS_useKPP(69)=.FALSE.  ,
(PID.TID 0000.0001) > PTRACERS_initialFile(69)='../input/input/loc1_biomass_run83_janprof.bin',
(PID.TID 0000.0001) ># tracer 70 - PHY49
(PID.TID 0000.0001) > PTRACERS_names(70)='Phy49',
(PID.TID 0000.0001) > PTRACERS_units(70)='mmol P/m^3'
(PID.TID 0000.0001) > PTRACERS_advScheme(70)=33,
(PID.TID 0000.0001) > PTRACERS_diffKh(70)=0.E3,
(PID.TID 0000.0001) > PTRACERS_diffKr(70)=1.E-5,
(PID.TID 0000.0001) > PTRACERS_useGMRedi(70)=.FALSE. ,
(PID.TID 0000.0001) > PTRACERS_useKPP(70)=.FALSE.  ,
(PID.TID 0000.0001) > PTRACERS_initialFile(70)='../input/input/loc1_biomass_run83_janprof.bin',
(PID.TID 0000.0001) ># tracer 71 - PHY50
(PID.TID 0000.0001) > PTRACERS_names(71)='Phy50',
(PID.TID 0000.0001) > PTRACERS_units(71)='mmol P/m^3'
(PID.TID 0000.0001) > PTRACERS_advScheme(71)=33,
(PID.TID 0000.0001) > PTRACERS_diffKh(71)=0.E3,
(PID.TID 0000.0001) > PTRACERS_diffKr(71)=1.E-5,
(PID.TID 0000.0001) > PTRACERS_useGMRedi(71)=.FALSE. ,
(PID.TID 0000.0001) > PTRACERS_useKPP(71)=.FALSE.  ,
(PID.TID 0000.0001) > PTRACERS_initialFile(71)='../input/input/loc1_biomass_run83_janprof.bin',
(PID.TID 0000.0001) ># tracer 72 - PHY51
(PID.TID 0000.0001) > PTRACERS_names(72)='Phy51',
(PID.TID 0000.0001) > PTRACERS_units(72)='mmol P/m^3'
(PID.TID 0000.0001) > PTRACERS_advScheme(72)=33,
(PID.TID 0000.0001) > PTRACERS_diffKh(72)=0.E3,
(PID.TID 0000.0001) > PTRACERS_diffKr(72)=1.E-5,
(PID.TID 0000.0001) > PTRACERS_useGMRedi(72)=.FALSE. ,
(PID.TID 0000.0001) > PTRACERS_useKPP(72)=.FALSE.  ,
(PID.TID 0000.0001) > PTRACERS_initialFile(72)='../input/input/loc1_biomass_run83_janprof.bin',
(PID.TID 0000.0001) ># tracer 73 - PHY52
(PID.TID 0000.0001) > PTRACERS_names(73)='Phy52',
(PID.TID 0000.0001) > PTRACERS_units(73)='mmol P/m^3'
(PID.TID 0000.0001) > PTRACERS_advScheme(73)=33,
(PID.TID 0000.0001) > PTRACERS_diffKh(73)=0.E3,
(PID.TID 0000.0001) > PTRACERS_diffKr(73)=1.E-5,
(PID.TID 0000.0001) > PTRACERS_useGMRedi(73)=.FALSE. ,
(PID.TID 0000.0001) > PTRACERS_useKPP(73)=.FALSE.  ,
(PID.TID 0000.0001) > PTRACERS_initialFile(73)='../input/input/loc1_biomass_run83_janprof.bin',
(PID.TID 0000.0001) ># tracer 74 - PHY53
(PID.TID 0000.0001) > PTRACERS_names(74)='Phy53',
(PID.TID 0000.0001) > PTRACERS_units(74)='mmol P/m^3'
(PID.TID 0000.0001) > PTRACERS_advScheme(74)=33,
(PID.TID 0000.0001) > PTRACERS_diffKh(74)=0.E3,
(PID.TID 0000.0001) > PTRACERS_diffKr(74)=1.E-5,
(PID.TID 0000.0001) > PTRACERS_useGMRedi(74)=.FALSE. ,
(PID.TID 0000.0001) > PTRACERS_useKPP(74)=.FALSE.  ,
(PID.TID 0000.0001) > PTRACERS_initialFile(74)='../input/input/loc1_biomass_run83_janprof.bin',
(PID.TID 0000.0001) ># tracer 75 - PHY54
(PID.TID 0000.0001) > PTRACERS_names(75)='Phy54',
(PID.TID 0000.0001) > PTRACERS_units(75)='mmol P/m^3'
(PID.TID 0000.0001) > PTRACERS_advScheme(75)=33,
(PID.TID 0000.0001) > PTRACERS_diffKh(75)=0.E3,
(PID.TID 0000.0001) > PTRACERS_diffKr(75)=1.E-5,
(PID.TID 0000.0001) > PTRACERS_useGMRedi(75)=.FALSE. ,
(PID.TID 0000.0001) > PTRACERS_useKPP(75)=.FALSE.  ,
(PID.TID 0000.0001) > PTRACERS_initialFile(75)='../input/input/loc1_biomass_run83_janprof.bin',
(PID.TID 0000.0001) ># tracer 76 - PHY55
(PID.TID 0000.0001) > PTRACERS_names(76)='Phy55',
(PID.TID 0000.0001) > PTRACERS_units(76)='mmol P/m^3'
(PID.TID 0000.0001) > PTRACERS_advScheme(76)=33,
(PID.TID 0000.0001) > PTRACERS_diffKh(76)=0.E3,
(PID.TID 0000.0001) > PTRACERS_diffKr(76)=1.E-5,
(PID.TID 0000.0001) > PTRACERS_useGMRedi(76)=.FALSE. ,
(PID.TID 0000.0001) > PTRACERS_useKPP(76)=.FALSE.  ,
(PID.TID 0000.0001) > PTRACERS_initialFile(76)='../input/input/loc1_biomass_run83_janprof.bin',
(PID.TID 0000.0001) ># tracer 77 - PHY56
(PID.TID 0000.0001) > PTRACERS_names(77)='Phy56',
(PID.TID 0000.0001) > PTRACERS_units(77)='mmol P/m^3'
(PID.TID 0000.0001) > PTRACERS_advScheme(77)=33,
(PID.TID 0000.0001) > PTRACERS_diffKh(77)=0.E3,
(PID.TID 0000.0001) > PTRACERS_diffKr(77)=1.E-5,
(PID.TID 0000.0001) > PTRACERS_useGMRedi(77)=.FALSE. ,
(PID.TID 0000.0001) > PTRACERS_useKPP(77)=.FALSE.  ,
(PID.TID 0000.0001) > PTRACERS_initialFile(77)='../input/input/loc1_biomass_run83_janprof.bin',
(PID.TID 0000.0001) ># tracer 78 - PHY57
(PID.TID 0000.0001) > PTRACERS_names(78)='Phy57',
(PID.TID 0000.0001) > PTRACERS_units(78)='mmol P/m^3'
(PID.TID 0000.0001) > PTRACERS_advScheme(78)=33,
(PID.TID 0000.0001) > PTRACERS_diffKh(78)=0.E3,
(PID.TID 0000.0001) > PTRACERS_diffKr(78)=1.E-5,
(PID.TID 0000.0001) > PTRACERS_useGMRedi(78)=.FALSE. ,
(PID.TID 0000.0001) > PTRACERS_useKPP(78)=.FALSE.  ,
(PID.TID 0000.0001) > PTRACERS_initialFile(78)='../input/input/loc1_biomass_run83_janprof.bin',
(PID.TID 0000.0001) ># tracer 79 - PHY58
(PID.TID 0000.0001) > PTRACERS_names(79)='Phy58',
(PID.TID 0000.0001) > PTRACERS_units(79)='mmol P/m^3'
(PID.TID 0000.0001) > PTRACERS_advScheme(79)=33,
(PID.TID 0000.0001) > PTRACERS_diffKh(79)=0.E3,
(PID.TID 0000.0001) > PTRACERS_diffKr(79)=1.E-5,
(PID.TID 0000.0001) > PTRACERS_useGMRedi(79)=.FALSE. ,
(PID.TID 0000.0001) > PTRACERS_useKPP(79)=.FALSE.  ,
(PID.TID 0000.0001) > PTRACERS_initialFile(79)='../input/input/loc1_biomass_run83_janprof.bin',
(PID.TID 0000.0001) ># tracer 80 - PHY59
(PID.TID 0000.0001) > PTRACERS_names(80)='Phy59',
(PID.TID 0000.0001) > PTRACERS_units(80)='mmol P/m^3'
(PID.TID 0000.0001) > PTRACERS_advScheme(80)=33,
(PID.TID 0000.0001) > PTRACERS_diffKh(80)=0.E3,
(PID.TID 0000.0001) > PTRACERS_diffKr(80)=1.E-5,
(PID.TID 0000.0001) > PTRACERS_useGMRedi(80)=.FALSE. ,
(PID.TID 0000.0001) > PTRACERS_useKPP(80)=.FALSE.  ,
(PID.TID 0000.0001) > PTRACERS_initialFile(80)='../input/input/loc1_biomass_run83_janprof.bin',
(PID.TID 0000.0001) ># tracer 81 - PHY60
(PID.TID 0000.0001) > PTRACERS_names(81)='Phy60',
(PID.TID 0000.0001) > PTRACERS_units(81)='mmol P/m^3'
(PID.TID 0000.0001) > PTRACERS_advScheme(81)=33,
(PID.TID 0000.0001) > PTRACERS_diffKh(81)=0.E3,
(PID.TID 0000.0001) > PTRACERS_diffKr(81)=1.E-5,
(PID.TID 0000.0001) > PTRACERS_useGMRedi(81)=.FALSE. ,
(PID.TID 0000.0001) > PTRACERS_useKPP(81)=.FALSE.  ,
(PID.TID 0000.0001) > PTRACERS_initialFile(81)='../input/input/loc1_biomass_run83_janprof.bin',
(PID.TID 0000.0001) ># tracer 82 - PHY61
(PID.TID 0000.0001) > PTRACERS_names(82)='Phy61',
(PID.TID 0000.0001) > PTRACERS_units(82)='mmol P/m^3'
(PID.TID 0000.0001) > PTRACERS_advScheme(82)=33,
(PID.TID 0000.0001) > PTRACERS_diffKh(82)=0.E3,
(PID.TID 0000.0001) > PTRACERS_diffKr(82)=1.E-5,
(PID.TID 0000.0001) > PTRACERS_useGMRedi(82)=.FALSE. ,
(PID.TID 0000.0001) > PTRACERS_useKPP(82)=.FALSE.  ,
(PID.TID 0000.0001) > PTRACERS_initialFile(82)='../input/input/loc1_biomass_run83_janprof.bin',
(PID.TID 0000.0001) ># tracer 83 - PHY62
(PID.TID 0000.0001) > PTRACERS_names(83)='Phy62',
(PID.TID 0000.0001) > PTRACERS_units(83)='mmol P/m^3'
(PID.TID 0000.0001) > PTRACERS_advScheme(83)=33,
(PID.TID 0000.0001) > PTRACERS_diffKh(83)=0.E3,
(PID.TID 0000.0001) > PTRACERS_diffKr(83)=1.E-5,
(PID.TID 0000.0001) > PTRACERS_useGMRedi(83)=.FALSE. ,
(PID.TID 0000.0001) > PTRACERS_useKPP(83)=.FALSE.  ,
(PID.TID 0000.0001) > PTRACERS_initialFile(83)='../input/input/loc1_biomass_run83_janprof.bin',
(PID.TID 0000.0001) ># tracer 84 - PHY63
(PID.TID 0000.0001) > PTRACERS_names(84)='Phy63',
(PID.TID 0000.0001) > PTRACERS_units(84)='mmol P/m^3'
(PID.TID 0000.0001) > PTRACERS_advScheme(84)=33,
(PID.TID 0000.0001) > PTRACERS_diffKh(84)=0.E3,
(PID.TID 0000.0001) > PTRACERS_diffKr(84)=1.E-5,
(PID.TID 0000.0001) > PTRACERS_useGMRedi(84)=.FALSE. ,
(PID.TID 0000.0001) > PTRACERS_useKPP(84)=.FALSE.  ,
(PID.TID 0000.0001) > PTRACERS_initialFile(84)='../input/input/loc1_biomass_run83_janprof.bin',
(PID.TID 0000.0001) ># tracer 85 - PHY64
(PID.TID 0000.0001) > PTRACERS_names(85)='Phy64',
(PID.TID 0000.0001) > PTRACERS_units(85)='mmol P/m^3'
(PID.TID 0000.0001) > PTRACERS_advScheme(85)=33,
(PID.TID 0000.0001) > PTRACERS_diffKh(85)=0.E3,
(PID.TID 0000.0001) > PTRACERS_diffKr(85)=1.E-5,
(PID.TID 0000.0001) > PTRACERS_useGMRedi(85)=.FALSE. ,
(PID.TID 0000.0001) > PTRACERS_useKPP(85)=.FALSE.  ,
(PID.TID 0000.0001) > PTRACERS_initialFile(85)='../input/input/loc1_biomass_run83_janprof.bin',
(PID.TID 0000.0001) ># tracer 86 - PHY65
(PID.TID 0000.0001) > PTRACERS_names(86)='Phy65',
(PID.TID 0000.0001) > PTRACERS_units(86)='mmol P/m^3'
(PID.TID 0000.0001) > PTRACERS_advScheme(86)=33,
(PID.TID 0000.0001) > PTRACERS_diffKh(86)=0.E3,
(PID.TID 0000.0001) > PTRACERS_diffKr(86)=1.E-5,
(PID.TID 0000.0001) > PTRACERS_useGMRedi(86)=.FALSE. ,
(PID.TID 0000.0001) > PTRACERS_useKPP(86)=.FALSE.  ,
(PID.TID 0000.0001) > PTRACERS_initialFile(86)='../input/input/loc1_biomass_run83_janprof.bin',
(PID.TID 0000.0001) ># tracer 87 - PHY66
(PID.TID 0000.0001) > PTRACERS_names(87)='Phy66',
(PID.TID 0000.0001) > PTRACERS_units(87)='mmol P/m^3'
(PID.TID 0000.0001) > PTRACERS_advScheme(87)=33,
(PID.TID 0000.0001) > PTRACERS_diffKh(87)=0.E3,
(PID.TID 0000.0001) > PTRACERS_diffKr(87)=1.E-5,
(PID.TID 0000.0001) > PTRACERS_useGMRedi(87)=.FALSE. ,
(PID.TID 0000.0001) > PTRACERS_useKPP(87)=.FALSE.  ,
(PID.TID 0000.0001) > PTRACERS_initialFile(87)='../input/input/loc1_biomass_run83_janprof.bin',
(PID.TID 0000.0001) ># tracer 88 - PHY67
(PID.TID 0000.0001) > PTRACERS_names(88)='Phy67',
(PID.TID 0000.0001) > PTRACERS_units(88)='mmol P/m^3'
(PID.TID 0000.0001) > PTRACERS_advScheme(88)=33,
(PID.TID 0000.0001) > PTRACERS_diffKh(88)=0.E3,
(PID.TID 0000.0001) > PTRACERS_diffKr(88)=1.E-5,
(PID.TID 0000.0001) > PTRACERS_useGMRedi(88)=.FALSE. ,
(PID.TID 0000.0001) > PTRACERS_useKPP(88)=.FALSE.  ,
(PID.TID 0000.0001) > PTRACERS_initialFile(88)='../input/input/loc1_biomass_run83_janprof.bin',
(PID.TID 0000.0001) ># tracer 89 - PHY68
(PID.TID 0000.0001) > PTRACERS_names(89)='Phy68',
(PID.TID 0000.0001) > PTRACERS_units(89)='mmol P/m^3'
(PID.TID 0000.0001) > PTRACERS_advScheme(89)=33,
(PID.TID 0000.0001) > PTRACERS_diffKh(89)=0.E3,
(PID.TID 0000.0001) > PTRACERS_diffKr(89)=1.E-5,
(PID.TID 0000.0001) > PTRACERS_useGMRedi(89)=.FALSE. ,
(PID.TID 0000.0001) > PTRACERS_useKPP(89)=.FALSE.  ,
(PID.TID 0000.0001) > PTRACERS_initialFile(89)='../input/input/loc1_biomass_run83_janprof.bin',
(PID.TID 0000.0001) ># tracer 90 - PHY69
(PID.TID 0000.0001) > PTRACERS_names(90)='Phy69',
(PID.TID 0000.0001) > PTRACERS_units(90)='mmol P/m^3'
(PID.TID 0000.0001) > PTRACERS_advScheme(90)=33,
(PID.TID 0000.0001) > PTRACERS_diffKh(90)=0.E3,
(PID.TID 0000.0001) > PTRACERS_diffKr(90)=1.E-5,
(PID.TID 0000.0001) > PTRACERS_useGMRedi(90)=.FALSE. ,
(PID.TID 0000.0001) > PTRACERS_useKPP(90)=.FALSE.  ,
(PID.TID 0000.0001) > PTRACERS_initialFile(90)='../input/input/loc1_biomass_run83_janprof.bin',
(PID.TID 0000.0001) ># tracer 91 - PHY70
(PID.TID 0000.0001) > PTRACERS_names(91)='Phy70',
(PID.TID 0000.0001) > PTRACERS_units(91)='mmol P/m^3'
(PID.TID 0000.0001) > PTRACERS_advScheme(91)=33,
(PID.TID 0000.0001) > PTRACERS_diffKh(91)=0.E3,
(PID.TID 0000.0001) > PTRACERS_diffKr(91)=1.E-5,
(PID.TID 0000.0001) > PTRACERS_useGMRedi(91)=.FALSE. ,
(PID.TID 0000.0001) > PTRACERS_useKPP(91)=.FALSE.  ,
(PID.TID 0000.0001) > PTRACERS_initialFile(91)='../input/input/loc1_biomass_run83_janprof.bin',
(PID.TID 0000.0001) ># tracer 92 - PHY71
(PID.TID 0000.0001) > PTRACERS_names(92)='Phy71',
(PID.TID 0000.0001) > PTRACERS_units(92)='mmol P/m^3'
(PID.TID 0000.0001) > PTRACERS_advScheme(92)=33,
(PID.TID 0000.0001) > PTRACERS_diffKh(92)=0.E3,
(PID.TID 0000.0001) > PTRACERS_diffKr(92)=1.E-5,
(PID.TID 0000.0001) > PTRACERS_useGMRedi(92)=.FALSE. ,
(PID.TID 0000.0001) > PTRACERS_useKPP(92)=.FALSE.  ,
(PID.TID 0000.0001) > PTRACERS_initialFile(92)='../input/input/loc1_biomass_run83_janprof.bin',
(PID.TID 0000.0001) ># tracer 93 - PHY72
(PID.TID 0000.0001) > PTRACERS_names(93)='Phy72',
(PID.TID 0000.0001) > PTRACERS_units(93)='mmol P/m^3'
(PID.TID 0000.0001) > PTRACERS_advScheme(93)=33,
(PID.TID 0000.0001) > PTRACERS_diffKh(93)=0.E3,
(PID.TID 0000.0001) > PTRACERS_diffKr(93)=1.E-5,
(PID.TID 0000.0001) > PTRACERS_useGMRedi(93)=.FALSE. ,
(PID.TID 0000.0001) > PTRACERS_useKPP(93)=.FALSE.  ,
(PID.TID 0000.0001) > PTRACERS_initialFile(93)='../input/input/loc1_biomass_run83_janprof.bin',
(PID.TID 0000.0001) ># tracer 94 - PHY73
(PID.TID 0000.0001) > PTRACERS_names(94)='Phy73',
(PID.TID 0000.0001) > PTRACERS_units(94)='mmol P/m^3'
(PID.TID 0000.0001) > PTRACERS_advScheme(94)=33,
(PID.TID 0000.0001) > PTRACERS_diffKh(94)=0.E3,
(PID.TID 0000.0001) > PTRACERS_diffKr(94)=1.E-5,
(PID.TID 0000.0001) > PTRACERS_useGMRedi(94)=.FALSE. ,
(PID.TID 0000.0001) > PTRACERS_useKPP(94)=.FALSE.  ,
(PID.TID 0000.0001) > PTRACERS_initialFile(94)='../input/input/loc1_biomass_run83_janprof.bin',
(PID.TID 0000.0001) ># tracer 95 - PHY74
(PID.TID 0000.0001) > PTRACERS_names(95)='Phy74',
(PID.TID 0000.0001) > PTRACERS_units(95)='mmol P/m^3'
(PID.TID 0000.0001) > PTRACERS_advScheme(95)=33,
(PID.TID 0000.0001) > PTRACERS_diffKh(95)=0.E3,
(PID.TID 0000.0001) > PTRACERS_diffKr(95)=1.E-5,
(PID.TID 0000.0001) > PTRACERS_useGMRedi(95)=.FALSE. ,
(PID.TID 0000.0001) > PTRACERS_useKPP(95)=.FALSE.  ,
(PID.TID 0000.0001) > PTRACERS_initialFile(95)='../input/input/loc1_biomass_run83_janprof.bin',
(PID.TID 0000.0001) ># tracer 96 - PHY75
(PID.TID 0000.0001) > PTRACERS_names(96)='Phy75',
(PID.TID 0000.0001) > PTRACERS_units(96)='mmol P/m^3'
(PID.TID 0000.0001) > PTRACERS_advScheme(96)=33,
(PID.TID 0000.0001) > PTRACERS_diffKh(96)=0.E3,
(PID.TID 0000.0001) > PTRACERS_diffKr(96)=1.E-5,
(PID.TID 0000.0001) > PTRACERS_useGMRedi(96)=.FALSE. ,
(PID.TID 0000.0001) > PTRACERS_useKPP(96)=.FALSE.  ,
(PID.TID 0000.0001) > PTRACERS_initialFile(96)='../input/input/loc1_biomass_run83_janprof.bin',
(PID.TID 0000.0001) ># tracer 97 - PHY76
(PID.TID 0000.0001) > PTRACERS_names(97)='Phy76',
(PID.TID 0000.0001) > PTRACERS_units(97)='mmol P/m^3'
(PID.TID 0000.0001) > PTRACERS_advScheme(97)=33,
(PID.TID 0000.0001) > PTRACERS_diffKh(97)=0.E3,
(PID.TID 0000.0001) > PTRACERS_diffKr(97)=1.E-5,
(PID.TID 0000.0001) > PTRACERS_useGMRedi(97)=.FALSE. ,
(PID.TID 0000.0001) > PTRACERS_useKPP(97)=.FALSE.  ,
(PID.TID 0000.0001) > PTRACERS_initialFile(97)='../input/input/loc1_biomass_run83_janprof.bin',
(PID.TID 0000.0001) ># tracer 98 - PHY77
(PID.TID 0000.0001) > PTRACERS_names(98)='Phy77',
(PID.TID 0000.0001) > PTRACERS_units(98)='mmol P/m^3'
(PID.TID 0000.0001) > PTRACERS_advScheme(98)=33,
(PID.TID 0000.0001) > PTRACERS_diffKh(98)=0.E3,
(PID.TID 0000.0001) > PTRACERS_diffKr(98)=1.E-5,
(PID.TID 0000.0001) > PTRACERS_useGMRedi(98)=.FALSE. ,
(PID.TID 0000.0001) > PTRACERS_useKPP(98)=.FALSE.  ,
(PID.TID 0000.0001) > PTRACERS_initialFile(98)='../input/input/loc1_biomass_run83_janprof.bin',
(PID.TID 0000.0001) ># tracer 99 - PHY78
(PID.TID 0000.0001) > PTRACERS_names(99)='Phy78',
(PID.TID 0000.0001) > PTRACERS_units(99)='mmol P/m^3'
(PID.TID 0000.0001) > PTRACERS_advScheme(99)=33,
(PID.TID 0000.0001) > PTRACERS_diffKh(99)=0.E3,
(PID.TID 0000.0001) > PTRACERS_diffKr(99)=1.E-5,
(PID.TID 0000.0001) > PTRACERS_useGMRedi(99)=.FALSE. ,
(PID.TID 0000.0001) > PTRACERS_useKPP(99)=.FALSE.  ,
(PID.TID 0000.0001) > PTRACERS_initialFile(99)='../input/input/loc1_biomass_run83_janprof.bin',
(PID.TID 0000.0001) > /
(PID.TID 0000.0001) 
(PID.TID 0000.0001)  PTRACERS_READPARMS: finished reading data.ptracers
(PID.TID 0000.0001) // ===================================
(PID.TID 0000.0001) // PTRACERS parameters
(PID.TID 0000.0001) // ===================================
(PID.TID 0000.0001) PTRACERS_numInUse = /* number of tracers */
(PID.TID 0000.0001)                      99
(PID.TID 0000.0001)     ;
(PID.TID 0000.0001) PTRACERS_Iter0 = /* timestep number when tracers are initialized */
(PID.TID 0000.0001)                       0
(PID.TID 0000.0001)     ;
(PID.TID 0000.0001) PTRACERS_addSrelax2EmP =/* add Salt relaxation to EmP */
(PID.TID 0000.0001)                   F
(PID.TID 0000.0001)     ;
(PID.TID 0000.0001) PTRACERS_dTLev =   /* Ptracer timestep ( s ) */
(PID.TID 0000.0001)    35 @  3.600000000000000E+03              /* K =  1: 35 */
(PID.TID 0000.0001)     ;
(PID.TID 0000.0001) PTRACERS_dumpFreq = /* Frequency^-1 for snapshot output (s) */
(PID.TID 0000.0001)                 3.110400000000000E+07
(PID.TID 0000.0001)     ;
(PID.TID 0000.0001) PTRACERS_taveFreq = /* Frequency^-1 for time-Aver. output (s) */
(PID.TID 0000.0001)                 1.000000000000000E+00
(PID.TID 0000.0001)     ;
(PID.TID 0000.0001) PTRACERS_useRecords = /* all tracers in 1 file */
(PID.TID 0000.0001)                   F
(PID.TID 0000.0001)     ;
(PID.TID 0000.0001) PTRACERS_timeave_mnc = /* use MNC for Tave output */
(PID.TID 0000.0001)                   T
(PID.TID 0000.0001)     ;
(PID.TID 0000.0001) PTRACERS_snapshot_mnc = /* use MNC for snapshot output */
(PID.TID 0000.0001)                   T
(PID.TID 0000.0001)     ;
(PID.TID 0000.0001) PTRACERS_pickup_write_mnc = /* use MNC for writing pickups */
(PID.TID 0000.0001)                   F
(PID.TID 0000.0001)     ;
(PID.TID 0000.0001) PTRACERS_pickup_read_mnc = /* use MNC for reading pickups */
(PID.TID 0000.0001)                   F
(PID.TID 0000.0001)     ;
(PID.TID 0000.0001)  -----------------------------------
(PID.TID 0000.0001)  tracer number :    1
(PID.TID 0000.0001) PTRACERS_names = /* Tracer short name */
(PID.TID 0000.0001)               'PO4'
(PID.TID 0000.0001)     ;
(PID.TID 0000.0001) PTRACERS_long_names = /* Tracer long name */
(PID.TID 0000.0001)               ''
(PID.TID 0000.0001)     ;
(PID.TID 0000.0001) PTRACERS_ioLabel = /* tracer IO Label */
(PID.TID 0000.0001)               '01'
(PID.TID 0000.0001)     ;
(PID.TID 0000.0001) PTRACERS_advScheme = /* Advection Scheme */
(PID.TID 0000.0001)                      33
(PID.TID 0000.0001)     ;
(PID.TID 0000.0001) PTRACERS_ImplVertAdv = /* implicit vert. advection flag */
(PID.TID 0000.0001)                   F
(PID.TID 0000.0001)     ;
(PID.TID 0000.0001) PTRACERS_diffKh = /* Laplacian Diffusivity */
(PID.TID 0000.0001)                 0.000000000000000E+00
(PID.TID 0000.0001)     ;
(PID.TID 0000.0001) PTRACERS_diffK4 = /* Biharmonic Diffusivity */
(PID.TID 0000.0001)                 0.000000000000000E+00
(PID.TID 0000.0001)     ;
(PID.TID 0000.0001) PTRACERS_diffKrNr = /* Vertical Diffusivity */
(PID.TID 0000.0001)    35 @  1.000000000000000E-05              /* K =  1: 35 */
(PID.TID 0000.0001)     ;
(PID.TID 0000.0001) PTRACERS_useGMRedi = /* apply GM-Redi */
(PID.TID 0000.0001)                   F
(PID.TID 0000.0001)     ;
(PID.TID 0000.0001) PTRACERS_useDWNSLP = /* apply DOWN-SLOPE Flow */
(PID.TID 0000.0001)                   F
(PID.TID 0000.0001)     ;
(PID.TID 0000.0001) PTRACERS_useKPP = /* apply KPP scheme */
(PID.TID 0000.0001)                   F
(PID.TID 0000.0001)     ;
(PID.TID 0000.0001) PTRACERS_ref = /* Reference vertical profile */
(PID.TID 0000.0001)    35 @  0.000000000000000E+00              /* K =  1: 35 */
(PID.TID 0000.0001)     ;
(PID.TID 0000.0001) PTRACERS_EvPrRn =/* tracer conc. in Evap. & Rain */
(PID.TID 0000.0001)                 1.234567000000000E+05
(PID.TID 0000.0001)     ;
(PID.TID 0000.0001)  -----------------------------------
(PID.TID 0000.0001)  tracer number :    2
(PID.TID 0000.0001) PTRACERS_names = /* Tracer short name */
(PID.TID 0000.0001)               'NO3'
(PID.TID 0000.0001)     ;
(PID.TID 0000.0001) PTRACERS_long_names = /* Tracer long name */
(PID.TID 0000.0001)               ''
(PID.TID 0000.0001)     ;
(PID.TID 0000.0001) PTRACERS_ioLabel = /* tracer IO Label */
(PID.TID 0000.0001)               '02'
(PID.TID 0000.0001)     ;
(PID.TID 0000.0001) PTRACERS_advScheme = /* Advection Scheme */
(PID.TID 0000.0001)                      33
(PID.TID 0000.0001)     ;
(PID.TID 0000.0001) PTRACERS_ImplVertAdv = /* implicit vert. advection flag */
(PID.TID 0000.0001)                   F
(PID.TID 0000.0001)     ;
(PID.TID 0000.0001) PTRACERS_diffKh = /* Laplacian Diffusivity */
(PID.TID 0000.0001)                 0.000000000000000E+00
(PID.TID 0000.0001)     ;
(PID.TID 0000.0001) PTRACERS_diffK4 = /* Biharmonic Diffusivity */
(PID.TID 0000.0001)                 0.000000000000000E+00
(PID.TID 0000.0001)     ;
(PID.TID 0000.0001) PTRACERS_diffKrNr = /* Vertical Diffusivity */
(PID.TID 0000.0001)    35 @  1.000000000000000E-05              /* K =  1: 35 */
(PID.TID 0000.0001)     ;
(PID.TID 0000.0001) PTRACERS_useGMRedi = /* apply GM-Redi */
(PID.TID 0000.0001)                   F
(PID.TID 0000.0001)     ;
(PID.TID 0000.0001) PTRACERS_useDWNSLP = /* apply DOWN-SLOPE Flow */
(PID.TID 0000.0001)                   F
(PID.TID 0000.0001)     ;
(PID.TID 0000.0001) PTRACERS_useKPP = /* apply KPP scheme */
(PID.TID 0000.0001)                   F
(PID.TID 0000.0001)     ;
(PID.TID 0000.0001) PTRACERS_ref = /* Reference vertical profile */
(PID.TID 0000.0001)    35 @  0.000000000000000E+00              /* K =  1: 35 */
(PID.TID 0000.0001)     ;
(PID.TID 0000.0001) PTRACERS_EvPrRn =/* tracer conc. in Evap. & Rain */
(PID.TID 0000.0001)                 1.234567000000000E+05
(PID.TID 0000.0001)     ;
(PID.TID 0000.0001)  -----------------------------------
(PID.TID 0000.0001)  tracer number :    3
(PID.TID 0000.0001) PTRACERS_names = /* Tracer short name */
(PID.TID 0000.0001)               'FeT'
(PID.TID 0000.0001)     ;
(PID.TID 0000.0001) PTRACERS_long_names = /* Tracer long name */
(PID.TID 0000.0001)               ''
(PID.TID 0000.0001)     ;
(PID.TID 0000.0001) PTRACERS_ioLabel = /* tracer IO Label */
(PID.TID 0000.0001)               '03'
(PID.TID 0000.0001)     ;
(PID.TID 0000.0001) PTRACERS_advScheme = /* Advection Scheme */
(PID.TID 0000.0001)                      33
(PID.TID 0000.0001)     ;
(PID.TID 0000.0001) PTRACERS_ImplVertAdv = /* implicit vert. advection flag */
(PID.TID 0000.0001)                   F
(PID.TID 0000.0001)     ;
(PID.TID 0000.0001) PTRACERS_diffKh = /* Laplacian Diffusivity */
(PID.TID 0000.0001)                 0.000000000000000E+00
(PID.TID 0000.0001)     ;
(PID.TID 0000.0001) PTRACERS_diffK4 = /* Biharmonic Diffusivity */
(PID.TID 0000.0001)                 0.000000000000000E+00
(PID.TID 0000.0001)     ;
(PID.TID 0000.0001) PTRACERS_diffKrNr = /* Vertical Diffusivity */
(PID.TID 0000.0001)    35 @  1.000000000000000E-05              /* K =  1: 35 */
(PID.TID 0000.0001)     ;
(PID.TID 0000.0001) PTRACERS_useGMRedi = /* apply GM-Redi */
(PID.TID 0000.0001)                   F
(PID.TID 0000.0001)     ;
(PID.TID 0000.0001) PTRACERS_useDWNSLP = /* apply DOWN-SLOPE Flow */
(PID.TID 0000.0001)                   F
(PID.TID 0000.0001)     ;
(PID.TID 0000.0001) PTRACERS_useKPP = /* apply KPP scheme */
(PID.TID 0000.0001)                   F
(PID.TID 0000.0001)     ;
(PID.TID 0000.0001) PTRACERS_ref = /* Reference vertical profile */
(PID.TID 0000.0001)    35 @  0.000000000000000E+00              /* K =  1: 35 */
(PID.TID 0000.0001)     ;
(PID.TID 0000.0001) PTRACERS_EvPrRn =/* tracer conc. in Evap. & Rain */
(PID.TID 0000.0001)                 1.234567000000000E+05
(PID.TID 0000.0001)     ;
(PID.TID 0000.0001)  -----------------------------------
(PID.TID 0000.0001)  tracer number :    4
(PID.TID 0000.0001) PTRACERS_names = /* Tracer short name */
(PID.TID 0000.0001)               'SiO2'
(PID.TID 0000.0001)     ;
(PID.TID 0000.0001) PTRACERS_long_names = /* Tracer long name */
(PID.TID 0000.0001)               ''
(PID.TID 0000.0001)     ;
(PID.TID 0000.0001) PTRACERS_ioLabel = /* tracer IO Label */
(PID.TID 0000.0001)               '04'
(PID.TID 0000.0001)     ;
(PID.TID 0000.0001) PTRACERS_advScheme = /* Advection Scheme */
(PID.TID 0000.0001)                      33
(PID.TID 0000.0001)     ;
(PID.TID 0000.0001) PTRACERS_ImplVertAdv = /* implicit vert. advection flag */
(PID.TID 0000.0001)                   F
(PID.TID 0000.0001)     ;
(PID.TID 0000.0001) PTRACERS_diffKh = /* Laplacian Diffusivity */
(PID.TID 0000.0001)                 0.000000000000000E+00
(PID.TID 0000.0001)     ;
(PID.TID 0000.0001) PTRACERS_diffK4 = /* Biharmonic Diffusivity */
(PID.TID 0000.0001)                 0.000000000000000E+00
(PID.TID 0000.0001)     ;
(PID.TID 0000.0001) PTRACERS_diffKrNr = /* Vertical Diffusivity */
(PID.TID 0000.0001)    35 @  1.000000000000000E-05              /* K =  1: 35 */
(PID.TID 0000.0001)     ;
(PID.TID 0000.0001) PTRACERS_useGMRedi = /* apply GM-Redi */
(PID.TID 0000.0001)                   F
(PID.TID 0000.0001)     ;
(PID.TID 0000.0001) PTRACERS_useDWNSLP = /* apply DOWN-SLOPE Flow */
(PID.TID 0000.0001)                   F
(PID.TID 0000.0001)     ;
(PID.TID 0000.0001) PTRACERS_useKPP = /* apply KPP scheme */
(PID.TID 0000.0001)                   F
(PID.TID 0000.0001)     ;
(PID.TID 0000.0001) PTRACERS_ref = /* Reference vertical profile */
(PID.TID 0000.0001)    35 @  0.000000000000000E+00              /* K =  1: 35 */
(PID.TID 0000.0001)     ;
(PID.TID 0000.0001) PTRACERS_EvPrRn =/* tracer conc. in Evap. & Rain */
(PID.TID 0000.0001)                 1.234567000000000E+05
(PID.TID 0000.0001)     ;
(PID.TID 0000.0001)  -----------------------------------
(PID.TID 0000.0001)  tracer number :    5
(PID.TID 0000.0001) PTRACERS_names = /* Tracer short name */
(PID.TID 0000.0001)               'DOP'
(PID.TID 0000.0001)     ;
(PID.TID 0000.0001) PTRACERS_long_names = /* Tracer long name */
(PID.TID 0000.0001)               ''
(PID.TID 0000.0001)     ;
(PID.TID 0000.0001) PTRACERS_ioLabel = /* tracer IO Label */
(PID.TID 0000.0001)               '05'
(PID.TID 0000.0001)     ;
(PID.TID 0000.0001) PTRACERS_advScheme = /* Advection Scheme */
(PID.TID 0000.0001)                      33
(PID.TID 0000.0001)     ;
(PID.TID 0000.0001) PTRACERS_ImplVertAdv = /* implicit vert. advection flag */
(PID.TID 0000.0001)                   F
(PID.TID 0000.0001)     ;
(PID.TID 0000.0001) PTRACERS_diffKh = /* Laplacian Diffusivity */
(PID.TID 0000.0001)                 0.000000000000000E+00
(PID.TID 0000.0001)     ;
(PID.TID 0000.0001) PTRACERS_diffK4 = /* Biharmonic Diffusivity */
(PID.TID 0000.0001)                 0.000000000000000E+00
(PID.TID 0000.0001)     ;
(PID.TID 0000.0001) PTRACERS_diffKrNr = /* Vertical Diffusivity */
(PID.TID 0000.0001)    35 @  1.000000000000000E-05              /* K =  1: 35 */
(PID.TID 0000.0001)     ;
(PID.TID 0000.0001) PTRACERS_useGMRedi = /* apply GM-Redi */
(PID.TID 0000.0001)                   F
(PID.TID 0000.0001)     ;
(PID.TID 0000.0001) PTRACERS_useDWNSLP = /* apply DOWN-SLOPE Flow */
(PID.TID 0000.0001)                   F
(PID.TID 0000.0001)     ;
(PID.TID 0000.0001) PTRACERS_useKPP = /* apply KPP scheme */
(PID.TID 0000.0001)                   F
(PID.TID 0000.0001)     ;
(PID.TID 0000.0001) PTRACERS_ref = /* Reference vertical profile */
(PID.TID 0000.0001)    35 @  0.000000000000000E+00              /* K =  1: 35 */
(PID.TID 0000.0001)     ;
(PID.TID 0000.0001) PTRACERS_EvPrRn =/* tracer conc. in Evap. & Rain */
(PID.TID 0000.0001)                 1.234567000000000E+05
(PID.TID 0000.0001)     ;
(PID.TID 0000.0001)  -----------------------------------
(PID.TID 0000.0001)  tracer number :    6
(PID.TID 0000.0001) PTRACERS_names = /* Tracer short name */
(PID.TID 0000.0001)               'DON'
(PID.TID 0000.0001)     ;
(PID.TID 0000.0001) PTRACERS_long_names = /* Tracer long name */
(PID.TID 0000.0001)               ''
(PID.TID 0000.0001)     ;
(PID.TID 0000.0001) PTRACERS_ioLabel = /* tracer IO Label */
(PID.TID 0000.0001)               '06'
(PID.TID 0000.0001)     ;
(PID.TID 0000.0001) PTRACERS_advScheme = /* Advection Scheme */
(PID.TID 0000.0001)                      33
(PID.TID 0000.0001)     ;
(PID.TID 0000.0001) PTRACERS_ImplVertAdv = /* implicit vert. advection flag */
(PID.TID 0000.0001)                   F
(PID.TID 0000.0001)     ;
(PID.TID 0000.0001) PTRACERS_diffKh = /* Laplacian Diffusivity */
(PID.TID 0000.0001)                 0.000000000000000E+00
(PID.TID 0000.0001)     ;
(PID.TID 0000.0001) PTRACERS_diffK4 = /* Biharmonic Diffusivity */
(PID.TID 0000.0001)                 0.000000000000000E+00
(PID.TID 0000.0001)     ;
(PID.TID 0000.0001) PTRACERS_diffKrNr = /* Vertical Diffusivity */
(PID.TID 0000.0001)    35 @  1.000000000000000E-05              /* K =  1: 35 */
(PID.TID 0000.0001)     ;
(PID.TID 0000.0001) PTRACERS_useGMRedi = /* apply GM-Redi */
(PID.TID 0000.0001)                   F
(PID.TID 0000.0001)     ;
(PID.TID 0000.0001) PTRACERS_useDWNSLP = /* apply DOWN-SLOPE Flow */
(PID.TID 0000.0001)                   F
(PID.TID 0000.0001)     ;
(PID.TID 0000.0001) PTRACERS_useKPP = /* apply KPP scheme */
(PID.TID 0000.0001)                   F
(PID.TID 0000.0001)     ;
(PID.TID 0000.0001) PTRACERS_ref = /* Reference vertical profile */
(PID.TID 0000.0001)    35 @  0.000000000000000E+00              /* K =  1: 35 */
(PID.TID 0000.0001)     ;
(PID.TID 0000.0001) PTRACERS_EvPrRn =/* tracer conc. in Evap. & Rain */
(PID.TID 0000.0001)                 1.234567000000000E+05
(PID.TID 0000.0001)     ;
(PID.TID 0000.0001)  -----------------------------------
(PID.TID 0000.0001)  tracer number :    7
(PID.TID 0000.0001) PTRACERS_names = /* Tracer short name */
(PID.TID 0000.0001)               'DOFe'
(PID.TID 0000.0001)     ;
(PID.TID 0000.0001) PTRACERS_long_names = /* Tracer long name */
(PID.TID 0000.0001)               ''
(PID.TID 0000.0001)     ;
(PID.TID 0000.0001) PTRACERS_ioLabel = /* tracer IO Label */
(PID.TID 0000.0001)               '07'
(PID.TID 0000.0001)     ;
(PID.TID 0000.0001) PTRACERS_advScheme = /* Advection Scheme */
(PID.TID 0000.0001)                      33
(PID.TID 0000.0001)     ;
(PID.TID 0000.0001) PTRACERS_ImplVertAdv = /* implicit vert. advection flag */
(PID.TID 0000.0001)                   F
(PID.TID 0000.0001)     ;
(PID.TID 0000.0001) PTRACERS_diffKh = /* Laplacian Diffusivity */
(PID.TID 0000.0001)                 0.000000000000000E+00
(PID.TID 0000.0001)     ;
(PID.TID 0000.0001) PTRACERS_diffK4 = /* Biharmonic Diffusivity */
(PID.TID 0000.0001)                 0.000000000000000E+00
(PID.TID 0000.0001)     ;
(PID.TID 0000.0001) PTRACERS_diffKrNr = /* Vertical Diffusivity */
(PID.TID 0000.0001)    35 @  1.000000000000000E-05              /* K =  1: 35 */
(PID.TID 0000.0001)     ;
(PID.TID 0000.0001) PTRACERS_useGMRedi = /* apply GM-Redi */
(PID.TID 0000.0001)                   F
(PID.TID 0000.0001)     ;
(PID.TID 0000.0001) PTRACERS_useDWNSLP = /* apply DOWN-SLOPE Flow */
(PID.TID 0000.0001)                   F
(PID.TID 0000.0001)     ;
(PID.TID 0000.0001) PTRACERS_useKPP = /* apply KPP scheme */
(PID.TID 0000.0001)                   F
(PID.TID 0000.0001)     ;
(PID.TID 0000.0001) PTRACERS_ref = /* Reference vertical profile */
(PID.TID 0000.0001)    35 @  0.000000000000000E+00              /* K =  1: 35 */
(PID.TID 0000.0001)     ;
(PID.TID 0000.0001) PTRACERS_EvPrRn =/* tracer conc. in Evap. & Rain */
(PID.TID 0000.0001)                 1.234567000000000E+05
(PID.TID 0000.0001)     ;
(PID.TID 0000.0001)  -----------------------------------
(PID.TID 0000.0001)  tracer number :    8
(PID.TID 0000.0001) PTRACERS_names = /* Tracer short name */
(PID.TID 0000.0001)               'ZOO1P'
(PID.TID 0000.0001)     ;
(PID.TID 0000.0001) PTRACERS_long_names = /* Tracer long name */
(PID.TID 0000.0001)               ''
(PID.TID 0000.0001)     ;
(PID.TID 0000.0001) PTRACERS_ioLabel = /* tracer IO Label */
(PID.TID 0000.0001)               '08'
(PID.TID 0000.0001)     ;
(PID.TID 0000.0001) PTRACERS_advScheme = /* Advection Scheme */
(PID.TID 0000.0001)                      33
(PID.TID 0000.0001)     ;
(PID.TID 0000.0001) PTRACERS_ImplVertAdv = /* implicit vert. advection flag */
(PID.TID 0000.0001)                   F
(PID.TID 0000.0001)     ;
(PID.TID 0000.0001) PTRACERS_diffKh = /* Laplacian Diffusivity */
(PID.TID 0000.0001)                 0.000000000000000E+00
(PID.TID 0000.0001)     ;
(PID.TID 0000.0001) PTRACERS_diffK4 = /* Biharmonic Diffusivity */
(PID.TID 0000.0001)                 0.000000000000000E+00
(PID.TID 0000.0001)     ;
(PID.TID 0000.0001) PTRACERS_diffKrNr = /* Vertical Diffusivity */
(PID.TID 0000.0001)    35 @  1.000000000000000E-05              /* K =  1: 35 */
(PID.TID 0000.0001)     ;
(PID.TID 0000.0001) PTRACERS_useGMRedi = /* apply GM-Redi */
(PID.TID 0000.0001)                   F
(PID.TID 0000.0001)     ;
(PID.TID 0000.0001) PTRACERS_useDWNSLP = /* apply DOWN-SLOPE Flow */
(PID.TID 0000.0001)                   F
(PID.TID 0000.0001)     ;
(PID.TID 0000.0001) PTRACERS_useKPP = /* apply KPP scheme */
(PID.TID 0000.0001)                   F
(PID.TID 0000.0001)     ;
(PID.TID 0000.0001) PTRACERS_ref = /* Reference vertical profile */
(PID.TID 0000.0001)    35 @  0.000000000000000E+00              /* K =  1: 35 */
(PID.TID 0000.0001)     ;
(PID.TID 0000.0001) PTRACERS_EvPrRn =/* tracer conc. in Evap. & Rain */
(PID.TID 0000.0001)                 1.234567000000000E+05
(PID.TID 0000.0001)     ;
(PID.TID 0000.0001)  -----------------------------------
(PID.TID 0000.0001)  tracer number :    9
(PID.TID 0000.0001) PTRACERS_names = /* Tracer short name */
(PID.TID 0000.0001)               'ZOO1N'
(PID.TID 0000.0001)     ;
(PID.TID 0000.0001) PTRACERS_long_names = /* Tracer long name */
(PID.TID 0000.0001)               ''
(PID.TID 0000.0001)     ;
(PID.TID 0000.0001) PTRACERS_ioLabel = /* tracer IO Label */
(PID.TID 0000.0001)               '09'
(PID.TID 0000.0001)     ;
(PID.TID 0000.0001) PTRACERS_advScheme = /* Advection Scheme */
(PID.TID 0000.0001)                      33
(PID.TID 0000.0001)     ;
(PID.TID 0000.0001) PTRACERS_ImplVertAdv = /* implicit vert. advection flag */
(PID.TID 0000.0001)                   F
(PID.TID 0000.0001)     ;
(PID.TID 0000.0001) PTRACERS_diffKh = /* Laplacian Diffusivity */
(PID.TID 0000.0001)                 0.000000000000000E+00
(PID.TID 0000.0001)     ;
(PID.TID 0000.0001) PTRACERS_diffK4 = /* Biharmonic Diffusivity */
(PID.TID 0000.0001)                 0.000000000000000E+00
(PID.TID 0000.0001)     ;
(PID.TID 0000.0001) PTRACERS_diffKrNr = /* Vertical Diffusivity */
(PID.TID 0000.0001)    35 @  1.000000000000000E-05              /* K =  1: 35 */
(PID.TID 0000.0001)     ;
(PID.TID 0000.0001) PTRACERS_useGMRedi = /* apply GM-Redi */
(PID.TID 0000.0001)                   F
(PID.TID 0000.0001)     ;
(PID.TID 0000.0001) PTRACERS_useDWNSLP = /* apply DOWN-SLOPE Flow */
(PID.TID 0000.0001)                   F
(PID.TID 0000.0001)     ;
(PID.TID 0000.0001) PTRACERS_useKPP = /* apply KPP scheme */
(PID.TID 0000.0001)                   F
(PID.TID 0000.0001)     ;
(PID.TID 0000.0001) PTRACERS_ref = /* Reference vertical profile */
(PID.TID 0000.0001)    35 @  0.000000000000000E+00              /* K =  1: 35 */
(PID.TID 0000.0001)     ;
(PID.TID 0000.0001) PTRACERS_EvPrRn =/* tracer conc. in Evap. & Rain */
(PID.TID 0000.0001)                 1.234567000000000E+05
(PID.TID 0000.0001)     ;
(PID.TID 0000.0001)  -----------------------------------
(PID.TID 0000.0001)  tracer number :   10
(PID.TID 0000.0001) PTRACERS_names = /* Tracer short name */
(PID.TID 0000.0001)               'ZOO1Fe'
(PID.TID 0000.0001)     ;
(PID.TID 0000.0001) PTRACERS_long_names = /* Tracer long name */
(PID.TID 0000.0001)               ''
(PID.TID 0000.0001)     ;
(PID.TID 0000.0001) PTRACERS_ioLabel = /* tracer IO Label */
(PID.TID 0000.0001)               '10'
(PID.TID 0000.0001)     ;
(PID.TID 0000.0001) PTRACERS_advScheme = /* Advection Scheme */
(PID.TID 0000.0001)                      33
(PID.TID 0000.0001)     ;
(PID.TID 0000.0001) PTRACERS_ImplVertAdv = /* implicit vert. advection flag */
(PID.TID 0000.0001)                   F
(PID.TID 0000.0001)     ;
(PID.TID 0000.0001) PTRACERS_diffKh = /* Laplacian Diffusivity */
(PID.TID 0000.0001)                 0.000000000000000E+00
(PID.TID 0000.0001)     ;
(PID.TID 0000.0001) PTRACERS_diffK4 = /* Biharmonic Diffusivity */
(PID.TID 0000.0001)                 0.000000000000000E+00
(PID.TID 0000.0001)     ;
(PID.TID 0000.0001) PTRACERS_diffKrNr = /* Vertical Diffusivity */
(PID.TID 0000.0001)    35 @  1.000000000000000E-05              /* K =  1: 35 */
(PID.TID 0000.0001)     ;
(PID.TID 0000.0001) PTRACERS_useGMRedi = /* apply GM-Redi */
(PID.TID 0000.0001)                   F
(PID.TID 0000.0001)     ;
(PID.TID 0000.0001) PTRACERS_useDWNSLP = /* apply DOWN-SLOPE Flow */
(PID.TID 0000.0001)                   F
(PID.TID 0000.0001)     ;
(PID.TID 0000.0001) PTRACERS_useKPP = /* apply KPP scheme */
(PID.TID 0000.0001)                   F
(PID.TID 0000.0001)     ;
(PID.TID 0000.0001) PTRACERS_ref = /* Reference vertical profile */
(PID.TID 0000.0001)    35 @  0.000000000000000E+00              /* K =  1: 35 */
(PID.TID 0000.0001)     ;
(PID.TID 0000.0001) PTRACERS_EvPrRn =/* tracer conc. in Evap. & Rain */
(PID.TID 0000.0001)                 1.234567000000000E+05
(PID.TID 0000.0001)     ;
(PID.TID 0000.0001)  -----------------------------------
(PID.TID 0000.0001)  tracer number :   11
(PID.TID 0000.0001) PTRACERS_names = /* Tracer short name */
(PID.TID 0000.0001)               'ZOO1Si'
(PID.TID 0000.0001)     ;
(PID.TID 0000.0001) PTRACERS_long_names = /* Tracer long name */
(PID.TID 0000.0001)               ''
(PID.TID 0000.0001)     ;
(PID.TID 0000.0001) PTRACERS_ioLabel = /* tracer IO Label */
(PID.TID 0000.0001)               '11'
(PID.TID 0000.0001)     ;
(PID.TID 0000.0001) PTRACERS_advScheme = /* Advection Scheme */
(PID.TID 0000.0001)                      33
(PID.TID 0000.0001)     ;
(PID.TID 0000.0001) PTRACERS_ImplVertAdv = /* implicit vert. advection flag */
(PID.TID 0000.0001)                   F
(PID.TID 0000.0001)     ;
(PID.TID 0000.0001) PTRACERS_diffKh = /* Laplacian Diffusivity */
(PID.TID 0000.0001)                 0.000000000000000E+00
(PID.TID 0000.0001)     ;
(PID.TID 0000.0001) PTRACERS_diffK4 = /* Biharmonic Diffusivity */
(PID.TID 0000.0001)                 0.000000000000000E+00
(PID.TID 0000.0001)     ;
(PID.TID 0000.0001) PTRACERS_diffKrNr = /* Vertical Diffusivity */
(PID.TID 0000.0001)    35 @  1.000000000000000E-05              /* K =  1: 35 */
(PID.TID 0000.0001)     ;
(PID.TID 0000.0001) PTRACERS_useGMRedi = /* apply GM-Redi */
(PID.TID 0000.0001)                   F
(PID.TID 0000.0001)     ;
(PID.TID 0000.0001) PTRACERS_useDWNSLP = /* apply DOWN-SLOPE Flow */
(PID.TID 0000.0001)                   F
(PID.TID 0000.0001)     ;
(PID.TID 0000.0001) PTRACERS_useKPP = /* apply KPP scheme */
(PID.TID 0000.0001)                   F
(PID.TID 0000.0001)     ;
(PID.TID 0000.0001) PTRACERS_ref = /* Reference vertical profile */
(PID.TID 0000.0001)    35 @  0.000000000000000E+00              /* K =  1: 35 */
(PID.TID 0000.0001)     ;
(PID.TID 0000.0001) PTRACERS_EvPrRn =/* tracer conc. in Evap. & Rain */
(PID.TID 0000.0001)                 1.234567000000000E+05
(PID.TID 0000.0001)     ;
(PID.TID 0000.0001)  -----------------------------------
(PID.TID 0000.0001)  tracer number :   12
(PID.TID 0000.0001) PTRACERS_names = /* Tracer short name */
(PID.TID 0000.0001)               'ZOO2P'
(PID.TID 0000.0001)     ;
(PID.TID 0000.0001) PTRACERS_long_names = /* Tracer long name */
(PID.TID 0000.0001)               ''
(PID.TID 0000.0001)     ;
(PID.TID 0000.0001) PTRACERS_ioLabel = /* tracer IO Label */
(PID.TID 0000.0001)               '12'
(PID.TID 0000.0001)     ;
(PID.TID 0000.0001) PTRACERS_advScheme = /* Advection Scheme */
(PID.TID 0000.0001)                      33
(PID.TID 0000.0001)     ;
(PID.TID 0000.0001) PTRACERS_ImplVertAdv = /* implicit vert. advection flag */
(PID.TID 0000.0001)                   F
(PID.TID 0000.0001)     ;
(PID.TID 0000.0001) PTRACERS_diffKh = /* Laplacian Diffusivity */
(PID.TID 0000.0001)                 0.000000000000000E+00
(PID.TID 0000.0001)     ;
(PID.TID 0000.0001) PTRACERS_diffK4 = /* Biharmonic Diffusivity */
(PID.TID 0000.0001)                 0.000000000000000E+00
(PID.TID 0000.0001)     ;
(PID.TID 0000.0001) PTRACERS_diffKrNr = /* Vertical Diffusivity */
(PID.TID 0000.0001)    35 @  1.000000000000000E-05              /* K =  1: 35 */
(PID.TID 0000.0001)     ;
(PID.TID 0000.0001) PTRACERS_useGMRedi = /* apply GM-Redi */
(PID.TID 0000.0001)                   F
(PID.TID 0000.0001)     ;
(PID.TID 0000.0001) PTRACERS_useDWNSLP = /* apply DOWN-SLOPE Flow */
(PID.TID 0000.0001)                   F
(PID.TID 0000.0001)     ;
(PID.TID 0000.0001) PTRACERS_useKPP = /* apply KPP scheme */
(PID.TID 0000.0001)                   F
(PID.TID 0000.0001)     ;
(PID.TID 0000.0001) PTRACERS_ref = /* Reference vertical profile */
(PID.TID 0000.0001)    35 @  0.000000000000000E+00              /* K =  1: 35 */
(PID.TID 0000.0001)     ;
(PID.TID 0000.0001) PTRACERS_EvPrRn =/* tracer conc. in Evap. & Rain */
(PID.TID 0000.0001)                 1.234567000000000E+05
(PID.TID 0000.0001)     ;
(PID.TID 0000.0001)  -----------------------------------
(PID.TID 0000.0001)  tracer number :   13
(PID.TID 0000.0001) PTRACERS_names = /* Tracer short name */
(PID.TID 0000.0001)               'ZOO2N'
(PID.TID 0000.0001)     ;
(PID.TID 0000.0001) PTRACERS_long_names = /* Tracer long name */
(PID.TID 0000.0001)               ''
(PID.TID 0000.0001)     ;
(PID.TID 0000.0001) PTRACERS_ioLabel = /* tracer IO Label */
(PID.TID 0000.0001)               '13'
(PID.TID 0000.0001)     ;
(PID.TID 0000.0001) PTRACERS_advScheme = /* Advection Scheme */
(PID.TID 0000.0001)                      33
(PID.TID 0000.0001)     ;
(PID.TID 0000.0001) PTRACERS_ImplVertAdv = /* implicit vert. advection flag */
(PID.TID 0000.0001)                   F
(PID.TID 0000.0001)     ;
(PID.TID 0000.0001) PTRACERS_diffKh = /* Laplacian Diffusivity */
(PID.TID 0000.0001)                 0.000000000000000E+00
(PID.TID 0000.0001)     ;
(PID.TID 0000.0001) PTRACERS_diffK4 = /* Biharmonic Diffusivity */
(PID.TID 0000.0001)                 0.000000000000000E+00
(PID.TID 0000.0001)     ;
(PID.TID 0000.0001) PTRACERS_diffKrNr = /* Vertical Diffusivity */
(PID.TID 0000.0001)    35 @  1.000000000000000E-05              /* K =  1: 35 */
(PID.TID 0000.0001)     ;
(PID.TID 0000.0001) PTRACERS_useGMRedi = /* apply GM-Redi */
(PID.TID 0000.0001)                   F
(PID.TID 0000.0001)     ;
(PID.TID 0000.0001) PTRACERS_useDWNSLP = /* apply DOWN-SLOPE Flow */
(PID.TID 0000.0001)                   F
(PID.TID 0000.0001)     ;
(PID.TID 0000.0001) PTRACERS_useKPP = /* apply KPP scheme */
(PID.TID 0000.0001)                   F
(PID.TID 0000.0001)     ;
(PID.TID 0000.0001) PTRACERS_ref = /* Reference vertical profile */
(PID.TID 0000.0001)    35 @  0.000000000000000E+00              /* K =  1: 35 */
(PID.TID 0000.0001)     ;
(PID.TID 0000.0001) PTRACERS_EvPrRn =/* tracer conc. in Evap. & Rain */
(PID.TID 0000.0001)                 1.234567000000000E+05
(PID.TID 0000.0001)     ;
(PID.TID 0000.0001)  -----------------------------------
(PID.TID 0000.0001)  tracer number :   14
(PID.TID 0000.0001) PTRACERS_names = /* Tracer short name */
(PID.TID 0000.0001)               'ZOO2Fe'
(PID.TID 0000.0001)     ;
(PID.TID 0000.0001) PTRACERS_long_names = /* Tracer long name */
(PID.TID 0000.0001)               ''
(PID.TID 0000.0001)     ;
(PID.TID 0000.0001) PTRACERS_ioLabel = /* tracer IO Label */
(PID.TID 0000.0001)               '14'
(PID.TID 0000.0001)     ;
(PID.TID 0000.0001) PTRACERS_advScheme = /* Advection Scheme */
(PID.TID 0000.0001)                      33
(PID.TID 0000.0001)     ;
(PID.TID 0000.0001) PTRACERS_ImplVertAdv = /* implicit vert. advection flag */
(PID.TID 0000.0001)                   F
(PID.TID 0000.0001)     ;
(PID.TID 0000.0001) PTRACERS_diffKh = /* Laplacian Diffusivity */
(PID.TID 0000.0001)                 0.000000000000000E+00
(PID.TID 0000.0001)     ;
(PID.TID 0000.0001) PTRACERS_diffK4 = /* Biharmonic Diffusivity */
(PID.TID 0000.0001)                 0.000000000000000E+00
(PID.TID 0000.0001)     ;
(PID.TID 0000.0001) PTRACERS_diffKrNr = /* Vertical Diffusivity */
(PID.TID 0000.0001)    35 @  1.000000000000000E-05              /* K =  1: 35 */
(PID.TID 0000.0001)     ;
(PID.TID 0000.0001) PTRACERS_useGMRedi = /* apply GM-Redi */
(PID.TID 0000.0001)                   F
(PID.TID 0000.0001)     ;
(PID.TID 0000.0001) PTRACERS_useDWNSLP = /* apply DOWN-SLOPE Flow */
(PID.TID 0000.0001)                   F
(PID.TID 0000.0001)     ;
(PID.TID 0000.0001) PTRACERS_useKPP = /* apply KPP scheme */
(PID.TID 0000.0001)                   F
(PID.TID 0000.0001)     ;
(PID.TID 0000.0001) PTRACERS_ref = /* Reference vertical profile */
(PID.TID 0000.0001)    35 @  0.000000000000000E+00              /* K =  1: 35 */
(PID.TID 0000.0001)     ;
(PID.TID 0000.0001) PTRACERS_EvPrRn =/* tracer conc. in Evap. & Rain */
(PID.TID 0000.0001)                 1.234567000000000E+05
(PID.TID 0000.0001)     ;
(PID.TID 0000.0001)  -----------------------------------
(PID.TID 0000.0001)  tracer number :   15
(PID.TID 0000.0001) PTRACERS_names = /* Tracer short name */
(PID.TID 0000.0001)               'ZOO2Si'
(PID.TID 0000.0001)     ;
(PID.TID 0000.0001) PTRACERS_long_names = /* Tracer long name */
(PID.TID 0000.0001)               ''
(PID.TID 0000.0001)     ;
(PID.TID 0000.0001) PTRACERS_ioLabel = /* tracer IO Label */
(PID.TID 0000.0001)               '15'
(PID.TID 0000.0001)     ;
(PID.TID 0000.0001) PTRACERS_advScheme = /* Advection Scheme */
(PID.TID 0000.0001)                      33
(PID.TID 0000.0001)     ;
(PID.TID 0000.0001) PTRACERS_ImplVertAdv = /* implicit vert. advection flag */
(PID.TID 0000.0001)                   F
(PID.TID 0000.0001)     ;
(PID.TID 0000.0001) PTRACERS_diffKh = /* Laplacian Diffusivity */
(PID.TID 0000.0001)                 0.000000000000000E+00
(PID.TID 0000.0001)     ;
(PID.TID 0000.0001) PTRACERS_diffK4 = /* Biharmonic Diffusivity */
(PID.TID 0000.0001)                 0.000000000000000E+00
(PID.TID 0000.0001)     ;
(PID.TID 0000.0001) PTRACERS_diffKrNr = /* Vertical Diffusivity */
(PID.TID 0000.0001)    35 @  1.000000000000000E-05              /* K =  1: 35 */
(PID.TID 0000.0001)     ;
(PID.TID 0000.0001) PTRACERS_useGMRedi = /* apply GM-Redi */
(PID.TID 0000.0001)                   F
(PID.TID 0000.0001)     ;
(PID.TID 0000.0001) PTRACERS_useDWNSLP = /* apply DOWN-SLOPE Flow */
(PID.TID 0000.0001)                   F
(PID.TID 0000.0001)     ;
(PID.TID 0000.0001) PTRACERS_useKPP = /* apply KPP scheme */
(PID.TID 0000.0001)                   F
(PID.TID 0000.0001)     ;
(PID.TID 0000.0001) PTRACERS_ref = /* Reference vertical profile */
(PID.TID 0000.0001)    35 @  0.000000000000000E+00              /* K =  1: 35 */
(PID.TID 0000.0001)     ;
(PID.TID 0000.0001) PTRACERS_EvPrRn =/* tracer conc. in Evap. & Rain */
(PID.TID 0000.0001)                 1.234567000000000E+05
(PID.TID 0000.0001)     ;
(PID.TID 0000.0001)  -----------------------------------
(PID.TID 0000.0001)  tracer number :   16
(PID.TID 0000.0001) PTRACERS_names = /* Tracer short name */
(PID.TID 0000.0001)               'POP'
(PID.TID 0000.0001)     ;
(PID.TID 0000.0001) PTRACERS_long_names = /* Tracer long name */
(PID.TID 0000.0001)               ''
(PID.TID 0000.0001)     ;
(PID.TID 0000.0001) PTRACERS_ioLabel = /* tracer IO Label */
(PID.TID 0000.0001)               '16'
(PID.TID 0000.0001)     ;
(PID.TID 0000.0001) PTRACERS_advScheme = /* Advection Scheme */
(PID.TID 0000.0001)                      33
(PID.TID 0000.0001)     ;
(PID.TID 0000.0001) PTRACERS_ImplVertAdv = /* implicit vert. advection flag */
(PID.TID 0000.0001)                   F
(PID.TID 0000.0001)     ;
(PID.TID 0000.0001) PTRACERS_diffKh = /* Laplacian Diffusivity */
(PID.TID 0000.0001)                 0.000000000000000E+00
(PID.TID 0000.0001)     ;
(PID.TID 0000.0001) PTRACERS_diffK4 = /* Biharmonic Diffusivity */
(PID.TID 0000.0001)                 0.000000000000000E+00
(PID.TID 0000.0001)     ;
(PID.TID 0000.0001) PTRACERS_diffKrNr = /* Vertical Diffusivity */
(PID.TID 0000.0001)    35 @  1.000000000000000E-05              /* K =  1: 35 */
(PID.TID 0000.0001)     ;
(PID.TID 0000.0001) PTRACERS_useGMRedi = /* apply GM-Redi */
(PID.TID 0000.0001)                   F
(PID.TID 0000.0001)     ;
(PID.TID 0000.0001) PTRACERS_useDWNSLP = /* apply DOWN-SLOPE Flow */
(PID.TID 0000.0001)                   F
(PID.TID 0000.0001)     ;
(PID.TID 0000.0001) PTRACERS_useKPP = /* apply KPP scheme */
(PID.TID 0000.0001)                   F
(PID.TID 0000.0001)     ;
(PID.TID 0000.0001) PTRACERS_ref = /* Reference vertical profile */
(PID.TID 0000.0001)    35 @  0.000000000000000E+00              /* K =  1: 35 */
(PID.TID 0000.0001)     ;
(PID.TID 0000.0001) PTRACERS_EvPrRn =/* tracer conc. in Evap. & Rain */
(PID.TID 0000.0001)                 1.234567000000000E+05
(PID.TID 0000.0001)     ;
(PID.TID 0000.0001)  -----------------------------------
(PID.TID 0000.0001)  tracer number :   17
(PID.TID 0000.0001) PTRACERS_names = /* Tracer short name */
(PID.TID 0000.0001)               'PON'
(PID.TID 0000.0001)     ;
(PID.TID 0000.0001) PTRACERS_long_names = /* Tracer long name */
(PID.TID 0000.0001)               ''
(PID.TID 0000.0001)     ;
(PID.TID 0000.0001) PTRACERS_ioLabel = /* tracer IO Label */
(PID.TID 0000.0001)               '17'
(PID.TID 0000.0001)     ;
(PID.TID 0000.0001) PTRACERS_advScheme = /* Advection Scheme */
(PID.TID 0000.0001)                      33
(PID.TID 0000.0001)     ;
(PID.TID 0000.0001) PTRACERS_ImplVertAdv = /* implicit vert. advection flag */
(PID.TID 0000.0001)                   F
(PID.TID 0000.0001)     ;
(PID.TID 0000.0001) PTRACERS_diffKh = /* Laplacian Diffusivity */
(PID.TID 0000.0001)                 0.000000000000000E+00
(PID.TID 0000.0001)     ;
(PID.TID 0000.0001) PTRACERS_diffK4 = /* Biharmonic Diffusivity */
(PID.TID 0000.0001)                 0.000000000000000E+00
(PID.TID 0000.0001)     ;
(PID.TID 0000.0001) PTRACERS_diffKrNr = /* Vertical Diffusivity */
(PID.TID 0000.0001)    35 @  1.000000000000000E-05              /* K =  1: 35 */
(PID.TID 0000.0001)     ;
(PID.TID 0000.0001) PTRACERS_useGMRedi = /* apply GM-Redi */
(PID.TID 0000.0001)                   F
(PID.TID 0000.0001)     ;
(PID.TID 0000.0001) PTRACERS_useDWNSLP = /* apply DOWN-SLOPE Flow */
(PID.TID 0000.0001)                   F
(PID.TID 0000.0001)     ;
(PID.TID 0000.0001) PTRACERS_useKPP = /* apply KPP scheme */
(PID.TID 0000.0001)                   F
(PID.TID 0000.0001)     ;
(PID.TID 0000.0001) PTRACERS_ref = /* Reference vertical profile */
(PID.TID 0000.0001)    35 @  0.000000000000000E+00              /* K =  1: 35 */
(PID.TID 0000.0001)     ;
(PID.TID 0000.0001) PTRACERS_EvPrRn =/* tracer conc. in Evap. & Rain */
(PID.TID 0000.0001)                 1.234567000000000E+05
(PID.TID 0000.0001)     ;
(PID.TID 0000.0001)  -----------------------------------
(PID.TID 0000.0001)  tracer number :   18
(PID.TID 0000.0001) PTRACERS_names = /* Tracer short name */
(PID.TID 0000.0001)               'POFe'
(PID.TID 0000.0001)     ;
(PID.TID 0000.0001) PTRACERS_long_names = /* Tracer long name */
(PID.TID 0000.0001)               ''
(PID.TID 0000.0001)     ;
(PID.TID 0000.0001) PTRACERS_ioLabel = /* tracer IO Label */
(PID.TID 0000.0001)               '18'
(PID.TID 0000.0001)     ;
(PID.TID 0000.0001) PTRACERS_advScheme = /* Advection Scheme */
(PID.TID 0000.0001)                      33
(PID.TID 0000.0001)     ;
(PID.TID 0000.0001) PTRACERS_ImplVertAdv = /* implicit vert. advection flag */
(PID.TID 0000.0001)                   F
(PID.TID 0000.0001)     ;
(PID.TID 0000.0001) PTRACERS_diffKh = /* Laplacian Diffusivity */
(PID.TID 0000.0001)                 0.000000000000000E+00
(PID.TID 0000.0001)     ;
(PID.TID 0000.0001) PTRACERS_diffK4 = /* Biharmonic Diffusivity */
(PID.TID 0000.0001)                 0.000000000000000E+00
(PID.TID 0000.0001)     ;
(PID.TID 0000.0001) PTRACERS_diffKrNr = /* Vertical Diffusivity */
(PID.TID 0000.0001)    35 @  1.000000000000000E-05              /* K =  1: 35 */
(PID.TID 0000.0001)     ;
(PID.TID 0000.0001) PTRACERS_useGMRedi = /* apply GM-Redi */
(PID.TID 0000.0001)                   F
(PID.TID 0000.0001)     ;
(PID.TID 0000.0001) PTRACERS_useDWNSLP = /* apply DOWN-SLOPE Flow */
(PID.TID 0000.0001)                   F
(PID.TID 0000.0001)     ;
(PID.TID 0000.0001) PTRACERS_useKPP = /* apply KPP scheme */
(PID.TID 0000.0001)                   F
(PID.TID 0000.0001)     ;
(PID.TID 0000.0001) PTRACERS_ref = /* Reference vertical profile */
(PID.TID 0000.0001)    35 @  0.000000000000000E+00              /* K =  1: 35 */
(PID.TID 0000.0001)     ;
(PID.TID 0000.0001) PTRACERS_EvPrRn =/* tracer conc. in Evap. & Rain */
(PID.TID 0000.0001)                 1.234567000000000E+05
(PID.TID 0000.0001)     ;
(PID.TID 0000.0001)  -----------------------------------
(PID.TID 0000.0001)  tracer number :   19
(PID.TID 0000.0001) PTRACERS_names = /* Tracer short name */
(PID.TID 0000.0001)               'POSi'
(PID.TID 0000.0001)     ;
(PID.TID 0000.0001) PTRACERS_long_names = /* Tracer long name */
(PID.TID 0000.0001)               ''
(PID.TID 0000.0001)     ;
(PID.TID 0000.0001) PTRACERS_ioLabel = /* tracer IO Label */
(PID.TID 0000.0001)               '19'
(PID.TID 0000.0001)     ;
(PID.TID 0000.0001) PTRACERS_advScheme = /* Advection Scheme */
(PID.TID 0000.0001)                      33
(PID.TID 0000.0001)     ;
(PID.TID 0000.0001) PTRACERS_ImplVertAdv = /* implicit vert. advection flag */
(PID.TID 0000.0001)                   F
(PID.TID 0000.0001)     ;
(PID.TID 0000.0001) PTRACERS_diffKh = /* Laplacian Diffusivity */
(PID.TID 0000.0001)                 0.000000000000000E+00
(PID.TID 0000.0001)     ;
(PID.TID 0000.0001) PTRACERS_diffK4 = /* Biharmonic Diffusivity */
(PID.TID 0000.0001)                 0.000000000000000E+00
(PID.TID 0000.0001)     ;
(PID.TID 0000.0001) PTRACERS_diffKrNr = /* Vertical Diffusivity */
(PID.TID 0000.0001)    35 @  1.000000000000000E-05              /* K =  1: 35 */
(PID.TID 0000.0001)     ;
(PID.TID 0000.0001) PTRACERS_useGMRedi = /* apply GM-Redi */
(PID.TID 0000.0001)                   F
(PID.TID 0000.0001)     ;
(PID.TID 0000.0001) PTRACERS_useDWNSLP = /* apply DOWN-SLOPE Flow */
(PID.TID 0000.0001)                   F
(PID.TID 0000.0001)     ;
(PID.TID 0000.0001) PTRACERS_useKPP = /* apply KPP scheme */
(PID.TID 0000.0001)                   F
(PID.TID 0000.0001)     ;
(PID.TID 0000.0001) PTRACERS_ref = /* Reference vertical profile */
(PID.TID 0000.0001)    35 @  0.000000000000000E+00              /* K =  1: 35 */
(PID.TID 0000.0001)     ;
(PID.TID 0000.0001) PTRACERS_EvPrRn =/* tracer conc. in Evap. & Rain */
(PID.TID 0000.0001)                 1.234567000000000E+05
(PID.TID 0000.0001)     ;
(PID.TID 0000.0001)  -----------------------------------
(PID.TID 0000.0001)  tracer number :   20
(PID.TID 0000.0001) PTRACERS_names = /* Tracer short name */
(PID.TID 0000.0001)               'NH4'
(PID.TID 0000.0001)     ;
(PID.TID 0000.0001) PTRACERS_long_names = /* Tracer long name */
(PID.TID 0000.0001)               ''
(PID.TID 0000.0001)     ;
(PID.TID 0000.0001) PTRACERS_ioLabel = /* tracer IO Label */
(PID.TID 0000.0001)               '20'
(PID.TID 0000.0001)     ;
(PID.TID 0000.0001) PTRACERS_advScheme = /* Advection Scheme */
(PID.TID 0000.0001)                      33
(PID.TID 0000.0001)     ;
(PID.TID 0000.0001) PTRACERS_ImplVertAdv = /* implicit vert. advection flag */
(PID.TID 0000.0001)                   F
(PID.TID 0000.0001)     ;
(PID.TID 0000.0001) PTRACERS_diffKh = /* Laplacian Diffusivity */
(PID.TID 0000.0001)                 0.000000000000000E+00
(PID.TID 0000.0001)     ;
(PID.TID 0000.0001) PTRACERS_diffK4 = /* Biharmonic Diffusivity */
(PID.TID 0000.0001)                 0.000000000000000E+00
(PID.TID 0000.0001)     ;
(PID.TID 0000.0001) PTRACERS_diffKrNr = /* Vertical Diffusivity */
(PID.TID 0000.0001)    35 @  1.000000000000000E-05              /* K =  1: 35 */
(PID.TID 0000.0001)     ;
(PID.TID 0000.0001) PTRACERS_useGMRedi = /* apply GM-Redi */
(PID.TID 0000.0001)                   F
(PID.TID 0000.0001)     ;
(PID.TID 0000.0001) PTRACERS_useDWNSLP = /* apply DOWN-SLOPE Flow */
(PID.TID 0000.0001)                   F
(PID.TID 0000.0001)     ;
(PID.TID 0000.0001) PTRACERS_useKPP = /* apply KPP scheme */
(PID.TID 0000.0001)                   F
(PID.TID 0000.0001)     ;
(PID.TID 0000.0001) PTRACERS_ref = /* Reference vertical profile */
(PID.TID 0000.0001)    35 @  0.000000000000000E+00              /* K =  1: 35 */
(PID.TID 0000.0001)     ;
(PID.TID 0000.0001) PTRACERS_EvPrRn =/* tracer conc. in Evap. & Rain */
(PID.TID 0000.0001)                 1.234567000000000E+05
(PID.TID 0000.0001)     ;
(PID.TID 0000.0001)  -----------------------------------
(PID.TID 0000.0001)  tracer number :   21
(PID.TID 0000.0001) PTRACERS_names = /* Tracer short name */
(PID.TID 0000.0001)               'NO2'
(PID.TID 0000.0001)     ;
(PID.TID 0000.0001) PTRACERS_long_names = /* Tracer long name */
(PID.TID 0000.0001)               ''
(PID.TID 0000.0001)     ;
(PID.TID 0000.0001) PTRACERS_ioLabel = /* tracer IO Label */
(PID.TID 0000.0001)               '21'
(PID.TID 0000.0001)     ;
(PID.TID 0000.0001) PTRACERS_advScheme = /* Advection Scheme */
(PID.TID 0000.0001)                      33
(PID.TID 0000.0001)     ;
(PID.TID 0000.0001) PTRACERS_ImplVertAdv = /* implicit vert. advection flag */
(PID.TID 0000.0001)                   F
(PID.TID 0000.0001)     ;
(PID.TID 0000.0001) PTRACERS_diffKh = /* Laplacian Diffusivity */
(PID.TID 0000.0001)                 0.000000000000000E+00
(PID.TID 0000.0001)     ;
(PID.TID 0000.0001) PTRACERS_diffK4 = /* Biharmonic Diffusivity */
(PID.TID 0000.0001)                 0.000000000000000E+00
(PID.TID 0000.0001)     ;
(PID.TID 0000.0001) PTRACERS_diffKrNr = /* Vertical Diffusivity */
(PID.TID 0000.0001)    35 @  1.000000000000000E-05              /* K =  1: 35 */
(PID.TID 0000.0001)     ;
(PID.TID 0000.0001) PTRACERS_useGMRedi = /* apply GM-Redi */
(PID.TID 0000.0001)                   F
(PID.TID 0000.0001)     ;
(PID.TID 0000.0001) PTRACERS_useDWNSLP = /* apply DOWN-SLOPE Flow */
(PID.TID 0000.0001)                   F
(PID.TID 0000.0001)     ;
(PID.TID 0000.0001) PTRACERS_useKPP = /* apply KPP scheme */
(PID.TID 0000.0001)                   F
(PID.TID 0000.0001)     ;
(PID.TID 0000.0001) PTRACERS_ref = /* Reference vertical profile */
(PID.TID 0000.0001)    35 @  0.000000000000000E+00              /* K =  1: 35 */
(PID.TID 0000.0001)     ;
(PID.TID 0000.0001) PTRACERS_EvPrRn =/* tracer conc. in Evap. & Rain */
(PID.TID 0000.0001)                 1.234567000000000E+05
(PID.TID 0000.0001)     ;
(PID.TID 0000.0001)  -----------------------------------
(PID.TID 0000.0001)  tracer number :   22
(PID.TID 0000.0001) PTRACERS_names = /* Tracer short name */
(PID.TID 0000.0001)               'Phy1'
(PID.TID 0000.0001)     ;
(PID.TID 0000.0001) PTRACERS_long_names = /* Tracer long name */
(PID.TID 0000.0001)               ''
(PID.TID 0000.0001)     ;
(PID.TID 0000.0001) PTRACERS_ioLabel = /* tracer IO Label */
(PID.TID 0000.0001)               '22'
(PID.TID 0000.0001)     ;
(PID.TID 0000.0001) PTRACERS_advScheme = /* Advection Scheme */
(PID.TID 0000.0001)                      33
(PID.TID 0000.0001)     ;
(PID.TID 0000.0001) PTRACERS_ImplVertAdv = /* implicit vert. advection flag */
(PID.TID 0000.0001)                   F
(PID.TID 0000.0001)     ;
(PID.TID 0000.0001) PTRACERS_diffKh = /* Laplacian Diffusivity */
(PID.TID 0000.0001)                 0.000000000000000E+00
(PID.TID 0000.0001)     ;
(PID.TID 0000.0001) PTRACERS_diffK4 = /* Biharmonic Diffusivity */
(PID.TID 0000.0001)                 0.000000000000000E+00
(PID.TID 0000.0001)     ;
(PID.TID 0000.0001) PTRACERS_diffKrNr = /* Vertical Diffusivity */
(PID.TID 0000.0001)    35 @  1.000000000000000E-05              /* K =  1: 35 */
(PID.TID 0000.0001)     ;
(PID.TID 0000.0001) PTRACERS_useGMRedi = /* apply GM-Redi */
(PID.TID 0000.0001)                   F
(PID.TID 0000.0001)     ;
(PID.TID 0000.0001) PTRACERS_useDWNSLP = /* apply DOWN-SLOPE Flow */
(PID.TID 0000.0001)                   F
(PID.TID 0000.0001)     ;
(PID.TID 0000.0001) PTRACERS_useKPP = /* apply KPP scheme */
(PID.TID 0000.0001)                   F
(PID.TID 0000.0001)     ;
(PID.TID 0000.0001) PTRACERS_ref = /* Reference vertical profile */
(PID.TID 0000.0001)    35 @  0.000000000000000E+00              /* K =  1: 35 */
(PID.TID 0000.0001)     ;
(PID.TID 0000.0001) PTRACERS_EvPrRn =/* tracer conc. in Evap. & Rain */
(PID.TID 0000.0001)                 1.234567000000000E+05
(PID.TID 0000.0001)     ;
(PID.TID 0000.0001)  -----------------------------------
(PID.TID 0000.0001)  tracer number :   23
(PID.TID 0000.0001) PTRACERS_names = /* Tracer short name */
(PID.TID 0000.0001)               'Phy2'
(PID.TID 0000.0001)     ;
(PID.TID 0000.0001) PTRACERS_long_names = /* Tracer long name */
(PID.TID 0000.0001)               ''
(PID.TID 0000.0001)     ;
(PID.TID 0000.0001) PTRACERS_ioLabel = /* tracer IO Label */
(PID.TID 0000.0001)               '23'
(PID.TID 0000.0001)     ;
(PID.TID 0000.0001) PTRACERS_advScheme = /* Advection Scheme */
(PID.TID 0000.0001)                      33
(PID.TID 0000.0001)     ;
(PID.TID 0000.0001) PTRACERS_ImplVertAdv = /* implicit vert. advection flag */
(PID.TID 0000.0001)                   F
(PID.TID 0000.0001)     ;
(PID.TID 0000.0001) PTRACERS_diffKh = /* Laplacian Diffusivity */
(PID.TID 0000.0001)                 0.000000000000000E+00
(PID.TID 0000.0001)     ;
(PID.TID 0000.0001) PTRACERS_diffK4 = /* Biharmonic Diffusivity */
(PID.TID 0000.0001)                 0.000000000000000E+00
(PID.TID 0000.0001)     ;
(PID.TID 0000.0001) PTRACERS_diffKrNr = /* Vertical Diffusivity */
(PID.TID 0000.0001)    35 @  1.000000000000000E-05              /* K =  1: 35 */
(PID.TID 0000.0001)     ;
(PID.TID 0000.0001) PTRACERS_useGMRedi = /* apply GM-Redi */
(PID.TID 0000.0001)                   F
(PID.TID 0000.0001)     ;
(PID.TID 0000.0001) PTRACERS_useDWNSLP = /* apply DOWN-SLOPE Flow */
(PID.TID 0000.0001)                   F
(PID.TID 0000.0001)     ;
(PID.TID 0000.0001) PTRACERS_useKPP = /* apply KPP scheme */
(PID.TID 0000.0001)                   F
(PID.TID 0000.0001)     ;
(PID.TID 0000.0001) PTRACERS_ref = /* Reference vertical profile */
(PID.TID 0000.0001)    35 @  0.000000000000000E+00              /* K =  1: 35 */
(PID.TID 0000.0001)     ;
(PID.TID 0000.0001) PTRACERS_EvPrRn =/* tracer conc. in Evap. & Rain */
(PID.TID 0000.0001)                 1.234567000000000E+05
(PID.TID 0000.0001)     ;
(PID.TID 0000.0001)  -----------------------------------
(PID.TID 0000.0001)  tracer number :   24
(PID.TID 0000.0001) PTRACERS_names = /* Tracer short name */
(PID.TID 0000.0001)               'Phy3'
(PID.TID 0000.0001)     ;
(PID.TID 0000.0001) PTRACERS_long_names = /* Tracer long name */
(PID.TID 0000.0001)               ''
(PID.TID 0000.0001)     ;
(PID.TID 0000.0001) PTRACERS_ioLabel = /* tracer IO Label */
(PID.TID 0000.0001)               '24'
(PID.TID 0000.0001)     ;
(PID.TID 0000.0001) PTRACERS_advScheme = /* Advection Scheme */
(PID.TID 0000.0001)                      33
(PID.TID 0000.0001)     ;
(PID.TID 0000.0001) PTRACERS_ImplVertAdv = /* implicit vert. advection flag */
(PID.TID 0000.0001)                   F
(PID.TID 0000.0001)     ;
(PID.TID 0000.0001) PTRACERS_diffKh = /* Laplacian Diffusivity */
(PID.TID 0000.0001)                 0.000000000000000E+00
(PID.TID 0000.0001)     ;
(PID.TID 0000.0001) PTRACERS_diffK4 = /* Biharmonic Diffusivity */
(PID.TID 0000.0001)                 0.000000000000000E+00
(PID.TID 0000.0001)     ;
(PID.TID 0000.0001) PTRACERS_diffKrNr = /* Vertical Diffusivity */
(PID.TID 0000.0001)    35 @  1.000000000000000E-05              /* K =  1: 35 */
(PID.TID 0000.0001)     ;
(PID.TID 0000.0001) PTRACERS_useGMRedi = /* apply GM-Redi */
(PID.TID 0000.0001)                   F
(PID.TID 0000.0001)     ;
(PID.TID 0000.0001) PTRACERS_useDWNSLP = /* apply DOWN-SLOPE Flow */
(PID.TID 0000.0001)                   F
(PID.TID 0000.0001)     ;
(PID.TID 0000.0001) PTRACERS_useKPP = /* apply KPP scheme */
(PID.TID 0000.0001)                   F
(PID.TID 0000.0001)     ;
(PID.TID 0000.0001) PTRACERS_ref = /* Reference vertical profile */
(PID.TID 0000.0001)    35 @  0.000000000000000E+00              /* K =  1: 35 */
(PID.TID 0000.0001)     ;
(PID.TID 0000.0001) PTRACERS_EvPrRn =/* tracer conc. in Evap. & Rain */
(PID.TID 0000.0001)                 1.234567000000000E+05
(PID.TID 0000.0001)     ;
(PID.TID 0000.0001)  -----------------------------------
(PID.TID 0000.0001)  tracer number :   25
(PID.TID 0000.0001) PTRACERS_names = /* Tracer short name */
(PID.TID 0000.0001)               'Phy4'
(PID.TID 0000.0001)     ;
(PID.TID 0000.0001) PTRACERS_long_names = /* Tracer long name */
(PID.TID 0000.0001)               ''
(PID.TID 0000.0001)     ;
(PID.TID 0000.0001) PTRACERS_ioLabel = /* tracer IO Label */
(PID.TID 0000.0001)               '25'
(PID.TID 0000.0001)     ;
(PID.TID 0000.0001) PTRACERS_advScheme = /* Advection Scheme */
(PID.TID 0000.0001)                      33
(PID.TID 0000.0001)     ;
(PID.TID 0000.0001) PTRACERS_ImplVertAdv = /* implicit vert. advection flag */
(PID.TID 0000.0001)                   F
(PID.TID 0000.0001)     ;
(PID.TID 0000.0001) PTRACERS_diffKh = /* Laplacian Diffusivity */
(PID.TID 0000.0001)                 0.000000000000000E+00
(PID.TID 0000.0001)     ;
(PID.TID 0000.0001) PTRACERS_diffK4 = /* Biharmonic Diffusivity */
(PID.TID 0000.0001)                 0.000000000000000E+00
(PID.TID 0000.0001)     ;
(PID.TID 0000.0001) PTRACERS_diffKrNr = /* Vertical Diffusivity */
(PID.TID 0000.0001)    35 @  1.000000000000000E-05              /* K =  1: 35 */
(PID.TID 0000.0001)     ;
(PID.TID 0000.0001) PTRACERS_useGMRedi = /* apply GM-Redi */
(PID.TID 0000.0001)                   F
(PID.TID 0000.0001)     ;
(PID.TID 0000.0001) PTRACERS_useDWNSLP = /* apply DOWN-SLOPE Flow */
(PID.TID 0000.0001)                   F
(PID.TID 0000.0001)     ;
(PID.TID 0000.0001) PTRACERS_useKPP = /* apply KPP scheme */
(PID.TID 0000.0001)                   F
(PID.TID 0000.0001)     ;
(PID.TID 0000.0001) PTRACERS_ref = /* Reference vertical profile */
(PID.TID 0000.0001)    35 @  0.000000000000000E+00              /* K =  1: 35 */
(PID.TID 0000.0001)     ;
(PID.TID 0000.0001) PTRACERS_EvPrRn =/* tracer conc. in Evap. & Rain */
(PID.TID 0000.0001)                 1.234567000000000E+05
(PID.TID 0000.0001)     ;
(PID.TID 0000.0001)  -----------------------------------
(PID.TID 0000.0001)  tracer number :   26
(PID.TID 0000.0001) PTRACERS_names = /* Tracer short name */
(PID.TID 0000.0001)               'Phy5'
(PID.TID 0000.0001)     ;
(PID.TID 0000.0001) PTRACERS_long_names = /* Tracer long name */
(PID.TID 0000.0001)               ''
(PID.TID 0000.0001)     ;
(PID.TID 0000.0001) PTRACERS_ioLabel = /* tracer IO Label */
(PID.TID 0000.0001)               '26'
(PID.TID 0000.0001)     ;
(PID.TID 0000.0001) PTRACERS_advScheme = /* Advection Scheme */
(PID.TID 0000.0001)                      33
(PID.TID 0000.0001)     ;
(PID.TID 0000.0001) PTRACERS_ImplVertAdv = /* implicit vert. advection flag */
(PID.TID 0000.0001)                   F
(PID.TID 0000.0001)     ;
(PID.TID 0000.0001) PTRACERS_diffKh = /* Laplacian Diffusivity */
(PID.TID 0000.0001)                 0.000000000000000E+00
(PID.TID 0000.0001)     ;
(PID.TID 0000.0001) PTRACERS_diffK4 = /* Biharmonic Diffusivity */
(PID.TID 0000.0001)                 0.000000000000000E+00
(PID.TID 0000.0001)     ;
(PID.TID 0000.0001) PTRACERS_diffKrNr = /* Vertical Diffusivity */
(PID.TID 0000.0001)    35 @  1.000000000000000E-05              /* K =  1: 35 */
(PID.TID 0000.0001)     ;
(PID.TID 0000.0001) PTRACERS_useGMRedi = /* apply GM-Redi */
(PID.TID 0000.0001)                   F
(PID.TID 0000.0001)     ;
(PID.TID 0000.0001) PTRACERS_useDWNSLP = /* apply DOWN-SLOPE Flow */
(PID.TID 0000.0001)                   F
(PID.TID 0000.0001)     ;
(PID.TID 0000.0001) PTRACERS_useKPP = /* apply KPP scheme */
(PID.TID 0000.0001)                   F
(PID.TID 0000.0001)     ;
(PID.TID 0000.0001) PTRACERS_ref = /* Reference vertical profile */
(PID.TID 0000.0001)    35 @  0.000000000000000E+00              /* K =  1: 35 */
(PID.TID 0000.0001)     ;
(PID.TID 0000.0001) PTRACERS_EvPrRn =/* tracer conc. in Evap. & Rain */
(PID.TID 0000.0001)                 1.234567000000000E+05
(PID.TID 0000.0001)     ;
(PID.TID 0000.0001)  -----------------------------------
(PID.TID 0000.0001)  tracer number :   27
(PID.TID 0000.0001) PTRACERS_names = /* Tracer short name */
(PID.TID 0000.0001)               'Phy6'
(PID.TID 0000.0001)     ;
(PID.TID 0000.0001) PTRACERS_long_names = /* Tracer long name */
(PID.TID 0000.0001)               ''
(PID.TID 0000.0001)     ;
(PID.TID 0000.0001) PTRACERS_ioLabel = /* tracer IO Label */
(PID.TID 0000.0001)               '27'
(PID.TID 0000.0001)     ;
(PID.TID 0000.0001) PTRACERS_advScheme = /* Advection Scheme */
(PID.TID 0000.0001)                      33
(PID.TID 0000.0001)     ;
(PID.TID 0000.0001) PTRACERS_ImplVertAdv = /* implicit vert. advection flag */
(PID.TID 0000.0001)                   F
(PID.TID 0000.0001)     ;
(PID.TID 0000.0001) PTRACERS_diffKh = /* Laplacian Diffusivity */
(PID.TID 0000.0001)                 0.000000000000000E+00
(PID.TID 0000.0001)     ;
(PID.TID 0000.0001) PTRACERS_diffK4 = /* Biharmonic Diffusivity */
(PID.TID 0000.0001)                 0.000000000000000E+00
(PID.TID 0000.0001)     ;
(PID.TID 0000.0001) PTRACERS_diffKrNr = /* Vertical Diffusivity */
(PID.TID 0000.0001)    35 @  1.000000000000000E-05              /* K =  1: 35 */
(PID.TID 0000.0001)     ;
(PID.TID 0000.0001) PTRACERS_useGMRedi = /* apply GM-Redi */
(PID.TID 0000.0001)                   F
(PID.TID 0000.0001)     ;
(PID.TID 0000.0001) PTRACERS_useDWNSLP = /* apply DOWN-SLOPE Flow */
(PID.TID 0000.0001)                   F
(PID.TID 0000.0001)     ;
(PID.TID 0000.0001) PTRACERS_useKPP = /* apply KPP scheme */
(PID.TID 0000.0001)                   F
(PID.TID 0000.0001)     ;
(PID.TID 0000.0001) PTRACERS_ref = /* Reference vertical profile */
(PID.TID 0000.0001)    35 @  0.000000000000000E+00              /* K =  1: 35 */
(PID.TID 0000.0001)     ;
(PID.TID 0000.0001) PTRACERS_EvPrRn =/* tracer conc. in Evap. & Rain */
(PID.TID 0000.0001)                 1.234567000000000E+05
(PID.TID 0000.0001)     ;
(PID.TID 0000.0001)  -----------------------------------
(PID.TID 0000.0001)  tracer number :   28
(PID.TID 0000.0001) PTRACERS_names = /* Tracer short name */
(PID.TID 0000.0001)               'Phy7'
(PID.TID 0000.0001)     ;
(PID.TID 0000.0001) PTRACERS_long_names = /* Tracer long name */
(PID.TID 0000.0001)               ''
(PID.TID 0000.0001)     ;
(PID.TID 0000.0001) PTRACERS_ioLabel = /* tracer IO Label */
(PID.TID 0000.0001)               '28'
(PID.TID 0000.0001)     ;
(PID.TID 0000.0001) PTRACERS_advScheme = /* Advection Scheme */
(PID.TID 0000.0001)                      33
(PID.TID 0000.0001)     ;
(PID.TID 0000.0001) PTRACERS_ImplVertAdv = /* implicit vert. advection flag */
(PID.TID 0000.0001)                   F
(PID.TID 0000.0001)     ;
(PID.TID 0000.0001) PTRACERS_diffKh = /* Laplacian Diffusivity */
(PID.TID 0000.0001)                 0.000000000000000E+00
(PID.TID 0000.0001)     ;
(PID.TID 0000.0001) PTRACERS_diffK4 = /* Biharmonic Diffusivity */
(PID.TID 0000.0001)                 0.000000000000000E+00
(PID.TID 0000.0001)     ;
(PID.TID 0000.0001) PTRACERS_diffKrNr = /* Vertical Diffusivity */
(PID.TID 0000.0001)    35 @  1.000000000000000E-05              /* K =  1: 35 */
(PID.TID 0000.0001)     ;
(PID.TID 0000.0001) PTRACERS_useGMRedi = /* apply GM-Redi */
(PID.TID 0000.0001)                   F
(PID.TID 0000.0001)     ;
(PID.TID 0000.0001) PTRACERS_useDWNSLP = /* apply DOWN-SLOPE Flow */
(PID.TID 0000.0001)                   F
(PID.TID 0000.0001)     ;
(PID.TID 0000.0001) PTRACERS_useKPP = /* apply KPP scheme */
(PID.TID 0000.0001)                   F
(PID.TID 0000.0001)     ;
(PID.TID 0000.0001) PTRACERS_ref = /* Reference vertical profile */
(PID.TID 0000.0001)    35 @  0.000000000000000E+00              /* K =  1: 35 */
(PID.TID 0000.0001)     ;
(PID.TID 0000.0001) PTRACERS_EvPrRn =/* tracer conc. in Evap. & Rain */
(PID.TID 0000.0001)                 1.234567000000000E+05
(PID.TID 0000.0001)     ;
(PID.TID 0000.0001)  -----------------------------------
(PID.TID 0000.0001)  tracer number :   29
(PID.TID 0000.0001) PTRACERS_names = /* Tracer short name */
(PID.TID 0000.0001)               'Phy8'
(PID.TID 0000.0001)     ;
(PID.TID 0000.0001) PTRACERS_long_names = /* Tracer long name */
(PID.TID 0000.0001)               ''
(PID.TID 0000.0001)     ;
(PID.TID 0000.0001) PTRACERS_ioLabel = /* tracer IO Label */
(PID.TID 0000.0001)               '29'
(PID.TID 0000.0001)     ;
(PID.TID 0000.0001) PTRACERS_advScheme = /* Advection Scheme */
(PID.TID 0000.0001)                      33
(PID.TID 0000.0001)     ;
(PID.TID 0000.0001) PTRACERS_ImplVertAdv = /* implicit vert. advection flag */
(PID.TID 0000.0001)                   F
(PID.TID 0000.0001)     ;
(PID.TID 0000.0001) PTRACERS_diffKh = /* Laplacian Diffusivity */
(PID.TID 0000.0001)                 0.000000000000000E+00
(PID.TID 0000.0001)     ;
(PID.TID 0000.0001) PTRACERS_diffK4 = /* Biharmonic Diffusivity */
(PID.TID 0000.0001)                 0.000000000000000E+00
(PID.TID 0000.0001)     ;
(PID.TID 0000.0001) PTRACERS_diffKrNr = /* Vertical Diffusivity */
(PID.TID 0000.0001)    35 @  1.000000000000000E-05              /* K =  1: 35 */
(PID.TID 0000.0001)     ;
(PID.TID 0000.0001) PTRACERS_useGMRedi = /* apply GM-Redi */
(PID.TID 0000.0001)                   F
(PID.TID 0000.0001)     ;
(PID.TID 0000.0001) PTRACERS_useDWNSLP = /* apply DOWN-SLOPE Flow */
(PID.TID 0000.0001)                   F
(PID.TID 0000.0001)     ;
(PID.TID 0000.0001) PTRACERS_useKPP = /* apply KPP scheme */
(PID.TID 0000.0001)                   F
(PID.TID 0000.0001)     ;
(PID.TID 0000.0001) PTRACERS_ref = /* Reference vertical profile */
(PID.TID 0000.0001)    35 @  0.000000000000000E+00              /* K =  1: 35 */
(PID.TID 0000.0001)     ;
(PID.TID 0000.0001) PTRACERS_EvPrRn =/* tracer conc. in Evap. & Rain */
(PID.TID 0000.0001)                 1.234567000000000E+05
(PID.TID 0000.0001)     ;
(PID.TID 0000.0001)  -----------------------------------
(PID.TID 0000.0001)  tracer number :   30
(PID.TID 0000.0001) PTRACERS_names = /* Tracer short name */
(PID.TID 0000.0001)               'Phy9'
(PID.TID 0000.0001)     ;
(PID.TID 0000.0001) PTRACERS_long_names = /* Tracer long name */
(PID.TID 0000.0001)               ''
(PID.TID 0000.0001)     ;
(PID.TID 0000.0001) PTRACERS_ioLabel = /* tracer IO Label */
(PID.TID 0000.0001)               '30'
(PID.TID 0000.0001)     ;
(PID.TID 0000.0001) PTRACERS_advScheme = /* Advection Scheme */
(PID.TID 0000.0001)                      33
(PID.TID 0000.0001)     ;
(PID.TID 0000.0001) PTRACERS_ImplVertAdv = /* implicit vert. advection flag */
(PID.TID 0000.0001)                   F
(PID.TID 0000.0001)     ;
(PID.TID 0000.0001) PTRACERS_diffKh = /* Laplacian Diffusivity */
(PID.TID 0000.0001)                 0.000000000000000E+00
(PID.TID 0000.0001)     ;
(PID.TID 0000.0001) PTRACERS_diffK4 = /* Biharmonic Diffusivity */
(PID.TID 0000.0001)                 0.000000000000000E+00
(PID.TID 0000.0001)     ;
(PID.TID 0000.0001) PTRACERS_diffKrNr = /* Vertical Diffusivity */
(PID.TID 0000.0001)    35 @  1.000000000000000E-05              /* K =  1: 35 */
(PID.TID 0000.0001)     ;
(PID.TID 0000.0001) PTRACERS_useGMRedi = /* apply GM-Redi */
(PID.TID 0000.0001)                   F
(PID.TID 0000.0001)     ;
(PID.TID 0000.0001) PTRACERS_useDWNSLP = /* apply DOWN-SLOPE Flow */
(PID.TID 0000.0001)                   F
(PID.TID 0000.0001)     ;
(PID.TID 0000.0001) PTRACERS_useKPP = /* apply KPP scheme */
(PID.TID 0000.0001)                   F
(PID.TID 0000.0001)     ;
(PID.TID 0000.0001) PTRACERS_ref = /* Reference vertical profile */
(PID.TID 0000.0001)    35 @  0.000000000000000E+00              /* K =  1: 35 */
(PID.TID 0000.0001)     ;
(PID.TID 0000.0001) PTRACERS_EvPrRn =/* tracer conc. in Evap. & Rain */
(PID.TID 0000.0001)                 1.234567000000000E+05
(PID.TID 0000.0001)     ;
(PID.TID 0000.0001)  -----------------------------------
(PID.TID 0000.0001)  tracer number :   31
(PID.TID 0000.0001) PTRACERS_names = /* Tracer short name */
(PID.TID 0000.0001)               'Phy10'
(PID.TID 0000.0001)     ;
(PID.TID 0000.0001) PTRACERS_long_names = /* Tracer long name */
(PID.TID 0000.0001)               ''
(PID.TID 0000.0001)     ;
(PID.TID 0000.0001) PTRACERS_ioLabel = /* tracer IO Label */
(PID.TID 0000.0001)               '31'
(PID.TID 0000.0001)     ;
(PID.TID 0000.0001) PTRACERS_advScheme = /* Advection Scheme */
(PID.TID 0000.0001)                      33
(PID.TID 0000.0001)     ;
(PID.TID 0000.0001) PTRACERS_ImplVertAdv = /* implicit vert. advection flag */
(PID.TID 0000.0001)                   F
(PID.TID 0000.0001)     ;
(PID.TID 0000.0001) PTRACERS_diffKh = /* Laplacian Diffusivity */
(PID.TID 0000.0001)                 0.000000000000000E+00
(PID.TID 0000.0001)     ;
(PID.TID 0000.0001) PTRACERS_diffK4 = /* Biharmonic Diffusivity */
(PID.TID 0000.0001)                 0.000000000000000E+00
(PID.TID 0000.0001)     ;
(PID.TID 0000.0001) PTRACERS_diffKrNr = /* Vertical Diffusivity */
(PID.TID 0000.0001)    35 @  1.000000000000000E-05              /* K =  1: 35 */
(PID.TID 0000.0001)     ;
(PID.TID 0000.0001) PTRACERS_useGMRedi = /* apply GM-Redi */
(PID.TID 0000.0001)                   F
(PID.TID 0000.0001)     ;
(PID.TID 0000.0001) PTRACERS_useDWNSLP = /* apply DOWN-SLOPE Flow */
(PID.TID 0000.0001)                   F
(PID.TID 0000.0001)     ;
(PID.TID 0000.0001) PTRACERS_useKPP = /* apply KPP scheme */
(PID.TID 0000.0001)                   F
(PID.TID 0000.0001)     ;
(PID.TID 0000.0001) PTRACERS_ref = /* Reference vertical profile */
(PID.TID 0000.0001)    35 @  0.000000000000000E+00              /* K =  1: 35 */
(PID.TID 0000.0001)     ;
(PID.TID 0000.0001) PTRACERS_EvPrRn =/* tracer conc. in Evap. & Rain */
(PID.TID 0000.0001)                 1.234567000000000E+05
(PID.TID 0000.0001)     ;
(PID.TID 0000.0001)  -----------------------------------
(PID.TID 0000.0001)  tracer number :   32
(PID.TID 0000.0001) PTRACERS_names = /* Tracer short name */
(PID.TID 0000.0001)               'Phy11'
(PID.TID 0000.0001)     ;
(PID.TID 0000.0001) PTRACERS_long_names = /* Tracer long name */
(PID.TID 0000.0001)               ''
(PID.TID 0000.0001)     ;
(PID.TID 0000.0001) PTRACERS_ioLabel = /* tracer IO Label */
(PID.TID 0000.0001)               '32'
(PID.TID 0000.0001)     ;
(PID.TID 0000.0001) PTRACERS_advScheme = /* Advection Scheme */
(PID.TID 0000.0001)                      33
(PID.TID 0000.0001)     ;
(PID.TID 0000.0001) PTRACERS_ImplVertAdv = /* implicit vert. advection flag */
(PID.TID 0000.0001)                   F
(PID.TID 0000.0001)     ;
(PID.TID 0000.0001) PTRACERS_diffKh = /* Laplacian Diffusivity */
(PID.TID 0000.0001)                 0.000000000000000E+00
(PID.TID 0000.0001)     ;
(PID.TID 0000.0001) PTRACERS_diffK4 = /* Biharmonic Diffusivity */
(PID.TID 0000.0001)                 0.000000000000000E+00
(PID.TID 0000.0001)     ;
(PID.TID 0000.0001) PTRACERS_diffKrNr = /* Vertical Diffusivity */
(PID.TID 0000.0001)    35 @  1.000000000000000E-05              /* K =  1: 35 */
(PID.TID 0000.0001)     ;
(PID.TID 0000.0001) PTRACERS_useGMRedi = /* apply GM-Redi */
(PID.TID 0000.0001)                   F
(PID.TID 0000.0001)     ;
(PID.TID 0000.0001) PTRACERS_useDWNSLP = /* apply DOWN-SLOPE Flow */
(PID.TID 0000.0001)                   F
(PID.TID 0000.0001)     ;
(PID.TID 0000.0001) PTRACERS_useKPP = /* apply KPP scheme */
(PID.TID 0000.0001)                   F
(PID.TID 0000.0001)     ;
(PID.TID 0000.0001) PTRACERS_ref = /* Reference vertical profile */
(PID.TID 0000.0001)    35 @  0.000000000000000E+00              /* K =  1: 35 */
(PID.TID 0000.0001)     ;
(PID.TID 0000.0001) PTRACERS_EvPrRn =/* tracer conc. in Evap. & Rain */
(PID.TID 0000.0001)                 1.234567000000000E+05
(PID.TID 0000.0001)     ;
(PID.TID 0000.0001)  -----------------------------------
(PID.TID 0000.0001)  tracer number :   33
(PID.TID 0000.0001) PTRACERS_names = /* Tracer short name */
(PID.TID 0000.0001)               'Phy12'
(PID.TID 0000.0001)     ;
(PID.TID 0000.0001) PTRACERS_long_names = /* Tracer long name */
(PID.TID 0000.0001)               ''
(PID.TID 0000.0001)     ;
(PID.TID 0000.0001) PTRACERS_ioLabel = /* tracer IO Label */
(PID.TID 0000.0001)               '33'
(PID.TID 0000.0001)     ;
(PID.TID 0000.0001) PTRACERS_advScheme = /* Advection Scheme */
(PID.TID 0000.0001)                      33
(PID.TID 0000.0001)     ;
(PID.TID 0000.0001) PTRACERS_ImplVertAdv = /* implicit vert. advection flag */
(PID.TID 0000.0001)                   F
(PID.TID 0000.0001)     ;
(PID.TID 0000.0001) PTRACERS_diffKh = /* Laplacian Diffusivity */
(PID.TID 0000.0001)                 0.000000000000000E+00
(PID.TID 0000.0001)     ;
(PID.TID 0000.0001) PTRACERS_diffK4 = /* Biharmonic Diffusivity */
(PID.TID 0000.0001)                 0.000000000000000E+00
(PID.TID 0000.0001)     ;
(PID.TID 0000.0001) PTRACERS_diffKrNr = /* Vertical Diffusivity */
(PID.TID 0000.0001)    35 @  1.000000000000000E-05              /* K =  1: 35 */
(PID.TID 0000.0001)     ;
(PID.TID 0000.0001) PTRACERS_useGMRedi = /* apply GM-Redi */
(PID.TID 0000.0001)                   F
(PID.TID 0000.0001)     ;
(PID.TID 0000.0001) PTRACERS_useDWNSLP = /* apply DOWN-SLOPE Flow */
(PID.TID 0000.0001)                   F
(PID.TID 0000.0001)     ;
(PID.TID 0000.0001) PTRACERS_useKPP = /* apply KPP scheme */
(PID.TID 0000.0001)                   F
(PID.TID 0000.0001)     ;
(PID.TID 0000.0001) PTRACERS_ref = /* Reference vertical profile */
(PID.TID 0000.0001)    35 @  0.000000000000000E+00              /* K =  1: 35 */
(PID.TID 0000.0001)     ;
(PID.TID 0000.0001) PTRACERS_EvPrRn =/* tracer conc. in Evap. & Rain */
(PID.TID 0000.0001)                 1.234567000000000E+05
(PID.TID 0000.0001)     ;
(PID.TID 0000.0001)  -----------------------------------
(PID.TID 0000.0001)  tracer number :   34
(PID.TID 0000.0001) PTRACERS_names = /* Tracer short name */
(PID.TID 0000.0001)               'Phy13'
(PID.TID 0000.0001)     ;
(PID.TID 0000.0001) PTRACERS_long_names = /* Tracer long name */
(PID.TID 0000.0001)               ''
(PID.TID 0000.0001)     ;
(PID.TID 0000.0001) PTRACERS_ioLabel = /* tracer IO Label */
(PID.TID 0000.0001)               '34'
(PID.TID 0000.0001)     ;
(PID.TID 0000.0001) PTRACERS_advScheme = /* Advection Scheme */
(PID.TID 0000.0001)                      33
(PID.TID 0000.0001)     ;
(PID.TID 0000.0001) PTRACERS_ImplVertAdv = /* implicit vert. advection flag */
(PID.TID 0000.0001)                   F
(PID.TID 0000.0001)     ;
(PID.TID 0000.0001) PTRACERS_diffKh = /* Laplacian Diffusivity */
(PID.TID 0000.0001)                 0.000000000000000E+00
(PID.TID 0000.0001)     ;
(PID.TID 0000.0001) PTRACERS_diffK4 = /* Biharmonic Diffusivity */
(PID.TID 0000.0001)                 0.000000000000000E+00
(PID.TID 0000.0001)     ;
(PID.TID 0000.0001) PTRACERS_diffKrNr = /* Vertical Diffusivity */
(PID.TID 0000.0001)    35 @  1.000000000000000E-05              /* K =  1: 35 */
(PID.TID 0000.0001)     ;
(PID.TID 0000.0001) PTRACERS_useGMRedi = /* apply GM-Redi */
(PID.TID 0000.0001)                   F
(PID.TID 0000.0001)     ;
(PID.TID 0000.0001) PTRACERS_useDWNSLP = /* apply DOWN-SLOPE Flow */
(PID.TID 0000.0001)                   F
(PID.TID 0000.0001)     ;
(PID.TID 0000.0001) PTRACERS_useKPP = /* apply KPP scheme */
(PID.TID 0000.0001)                   F
(PID.TID 0000.0001)     ;
(PID.TID 0000.0001) PTRACERS_ref = /* Reference vertical profile */
(PID.TID 0000.0001)    35 @  0.000000000000000E+00              /* K =  1: 35 */
(PID.TID 0000.0001)     ;
(PID.TID 0000.0001) PTRACERS_EvPrRn =/* tracer conc. in Evap. & Rain */
(PID.TID 0000.0001)                 1.234567000000000E+05
(PID.TID 0000.0001)     ;
(PID.TID 0000.0001)  -----------------------------------
(PID.TID 0000.0001)  tracer number :   35
(PID.TID 0000.0001) PTRACERS_names = /* Tracer short name */
(PID.TID 0000.0001)               'Phy14'
(PID.TID 0000.0001)     ;
(PID.TID 0000.0001) PTRACERS_long_names = /* Tracer long name */
(PID.TID 0000.0001)               ''
(PID.TID 0000.0001)     ;
(PID.TID 0000.0001) PTRACERS_ioLabel = /* tracer IO Label */
(PID.TID 0000.0001)               '35'
(PID.TID 0000.0001)     ;
(PID.TID 0000.0001) PTRACERS_advScheme = /* Advection Scheme */
(PID.TID 0000.0001)                      33
(PID.TID 0000.0001)     ;
(PID.TID 0000.0001) PTRACERS_ImplVertAdv = /* implicit vert. advection flag */
(PID.TID 0000.0001)                   F
(PID.TID 0000.0001)     ;
(PID.TID 0000.0001) PTRACERS_diffKh = /* Laplacian Diffusivity */
(PID.TID 0000.0001)                 0.000000000000000E+00
(PID.TID 0000.0001)     ;
(PID.TID 0000.0001) PTRACERS_diffK4 = /* Biharmonic Diffusivity */
(PID.TID 0000.0001)                 0.000000000000000E+00
(PID.TID 0000.0001)     ;
(PID.TID 0000.0001) PTRACERS_diffKrNr = /* Vertical Diffusivity */
(PID.TID 0000.0001)    35 @  1.000000000000000E-05              /* K =  1: 35 */
(PID.TID 0000.0001)     ;
(PID.TID 0000.0001) PTRACERS_useGMRedi = /* apply GM-Redi */
(PID.TID 0000.0001)                   F
(PID.TID 0000.0001)     ;
(PID.TID 0000.0001) PTRACERS_useDWNSLP = /* apply DOWN-SLOPE Flow */
(PID.TID 0000.0001)                   F
(PID.TID 0000.0001)     ;
(PID.TID 0000.0001) PTRACERS_useKPP = /* apply KPP scheme */
(PID.TID 0000.0001)                   F
(PID.TID 0000.0001)     ;
(PID.TID 0000.0001) PTRACERS_ref = /* Reference vertical profile */
(PID.TID 0000.0001)    35 @  0.000000000000000E+00              /* K =  1: 35 */
(PID.TID 0000.0001)     ;
(PID.TID 0000.0001) PTRACERS_EvPrRn =/* tracer conc. in Evap. & Rain */
(PID.TID 0000.0001)                 1.234567000000000E+05
(PID.TID 0000.0001)     ;
(PID.TID 0000.0001)  -----------------------------------
(PID.TID 0000.0001)  tracer number :   36
(PID.TID 0000.0001) PTRACERS_names = /* Tracer short name */
(PID.TID 0000.0001)               'Phy15'
(PID.TID 0000.0001)     ;
(PID.TID 0000.0001) PTRACERS_long_names = /* Tracer long name */
(PID.TID 0000.0001)               ''
(PID.TID 0000.0001)     ;
(PID.TID 0000.0001) PTRACERS_ioLabel = /* tracer IO Label */
(PID.TID 0000.0001)               '36'
(PID.TID 0000.0001)     ;
(PID.TID 0000.0001) PTRACERS_advScheme = /* Advection Scheme */
(PID.TID 0000.0001)                      33
(PID.TID 0000.0001)     ;
(PID.TID 0000.0001) PTRACERS_ImplVertAdv = /* implicit vert. advection flag */
(PID.TID 0000.0001)                   F
(PID.TID 0000.0001)     ;
(PID.TID 0000.0001) PTRACERS_diffKh = /* Laplacian Diffusivity */
(PID.TID 0000.0001)                 0.000000000000000E+00
(PID.TID 0000.0001)     ;
(PID.TID 0000.0001) PTRACERS_diffK4 = /* Biharmonic Diffusivity */
(PID.TID 0000.0001)                 0.000000000000000E+00
(PID.TID 0000.0001)     ;
(PID.TID 0000.0001) PTRACERS_diffKrNr = /* Vertical Diffusivity */
(PID.TID 0000.0001)    35 @  1.000000000000000E-05              /* K =  1: 35 */
(PID.TID 0000.0001)     ;
(PID.TID 0000.0001) PTRACERS_useGMRedi = /* apply GM-Redi */
(PID.TID 0000.0001)                   F
(PID.TID 0000.0001)     ;
(PID.TID 0000.0001) PTRACERS_useDWNSLP = /* apply DOWN-SLOPE Flow */
(PID.TID 0000.0001)                   F
(PID.TID 0000.0001)     ;
(PID.TID 0000.0001) PTRACERS_useKPP = /* apply KPP scheme */
(PID.TID 0000.0001)                   F
(PID.TID 0000.0001)     ;
(PID.TID 0000.0001) PTRACERS_ref = /* Reference vertical profile */
(PID.TID 0000.0001)    35 @  0.000000000000000E+00              /* K =  1: 35 */
(PID.TID 0000.0001)     ;
(PID.TID 0000.0001) PTRACERS_EvPrRn =/* tracer conc. in Evap. & Rain */
(PID.TID 0000.0001)                 1.234567000000000E+05
(PID.TID 0000.0001)     ;
(PID.TID 0000.0001)  -----------------------------------
(PID.TID 0000.0001)  tracer number :   37
(PID.TID 0000.0001) PTRACERS_names = /* Tracer short name */
(PID.TID 0000.0001)               'Phy16'
(PID.TID 0000.0001)     ;
(PID.TID 0000.0001) PTRACERS_long_names = /* Tracer long name */
(PID.TID 0000.0001)               ''
(PID.TID 0000.0001)     ;
(PID.TID 0000.0001) PTRACERS_ioLabel = /* tracer IO Label */
(PID.TID 0000.0001)               '37'
(PID.TID 0000.0001)     ;
(PID.TID 0000.0001) PTRACERS_advScheme = /* Advection Scheme */
(PID.TID 0000.0001)                      33
(PID.TID 0000.0001)     ;
(PID.TID 0000.0001) PTRACERS_ImplVertAdv = /* implicit vert. advection flag */
(PID.TID 0000.0001)                   F
(PID.TID 0000.0001)     ;
(PID.TID 0000.0001) PTRACERS_diffKh = /* Laplacian Diffusivity */
(PID.TID 0000.0001)                 0.000000000000000E+00
(PID.TID 0000.0001)     ;
(PID.TID 0000.0001) PTRACERS_diffK4 = /* Biharmonic Diffusivity */
(PID.TID 0000.0001)                 0.000000000000000E+00
(PID.TID 0000.0001)     ;
(PID.TID 0000.0001) PTRACERS_diffKrNr = /* Vertical Diffusivity */
(PID.TID 0000.0001)    35 @  1.000000000000000E-05              /* K =  1: 35 */
(PID.TID 0000.0001)     ;
(PID.TID 0000.0001) PTRACERS_useGMRedi = /* apply GM-Redi */
(PID.TID 0000.0001)                   F
(PID.TID 0000.0001)     ;
(PID.TID 0000.0001) PTRACERS_useDWNSLP = /* apply DOWN-SLOPE Flow */
(PID.TID 0000.0001)                   F
(PID.TID 0000.0001)     ;
(PID.TID 0000.0001) PTRACERS_useKPP = /* apply KPP scheme */
(PID.TID 0000.0001)                   F
(PID.TID 0000.0001)     ;
(PID.TID 0000.0001) PTRACERS_ref = /* Reference vertical profile */
(PID.TID 0000.0001)    35 @  0.000000000000000E+00              /* K =  1: 35 */
(PID.TID 0000.0001)     ;
(PID.TID 0000.0001) PTRACERS_EvPrRn =/* tracer conc. in Evap. & Rain */
(PID.TID 0000.0001)                 1.234567000000000E+05
(PID.TID 0000.0001)     ;
(PID.TID 0000.0001)  -----------------------------------
(PID.TID 0000.0001)  tracer number :   38
(PID.TID 0000.0001) PTRACERS_names = /* Tracer short name */
(PID.TID 0000.0001)               'Phy17'
(PID.TID 0000.0001)     ;
(PID.TID 0000.0001) PTRACERS_long_names = /* Tracer long name */
(PID.TID 0000.0001)               ''
(PID.TID 0000.0001)     ;
(PID.TID 0000.0001) PTRACERS_ioLabel = /* tracer IO Label */
(PID.TID 0000.0001)               '38'
(PID.TID 0000.0001)     ;
(PID.TID 0000.0001) PTRACERS_advScheme = /* Advection Scheme */
(PID.TID 0000.0001)                      33
(PID.TID 0000.0001)     ;
(PID.TID 0000.0001) PTRACERS_ImplVertAdv = /* implicit vert. advection flag */
(PID.TID 0000.0001)                   F
(PID.TID 0000.0001)     ;
(PID.TID 0000.0001) PTRACERS_diffKh = /* Laplacian Diffusivity */
(PID.TID 0000.0001)                 0.000000000000000E+00
(PID.TID 0000.0001)     ;
(PID.TID 0000.0001) PTRACERS_diffK4 = /* Biharmonic Diffusivity */
(PID.TID 0000.0001)                 0.000000000000000E+00
(PID.TID 0000.0001)     ;
(PID.TID 0000.0001) PTRACERS_diffKrNr = /* Vertical Diffusivity */
(PID.TID 0000.0001)    35 @  1.000000000000000E-05              /* K =  1: 35 */
(PID.TID 0000.0001)     ;
(PID.TID 0000.0001) PTRACERS_useGMRedi = /* apply GM-Redi */
(PID.TID 0000.0001)                   F
(PID.TID 0000.0001)     ;
(PID.TID 0000.0001) PTRACERS_useDWNSLP = /* apply DOWN-SLOPE Flow */
(PID.TID 0000.0001)                   F
(PID.TID 0000.0001)     ;
(PID.TID 0000.0001) PTRACERS_useKPP = /* apply KPP scheme */
(PID.TID 0000.0001)                   F
(PID.TID 0000.0001)     ;
(PID.TID 0000.0001) PTRACERS_ref = /* Reference vertical profile */
(PID.TID 0000.0001)    35 @  0.000000000000000E+00              /* K =  1: 35 */
(PID.TID 0000.0001)     ;
(PID.TID 0000.0001) PTRACERS_EvPrRn =/* tracer conc. in Evap. & Rain */
(PID.TID 0000.0001)                 1.234567000000000E+05
(PID.TID 0000.0001)     ;
(PID.TID 0000.0001)  -----------------------------------
(PID.TID 0000.0001)  tracer number :   39
(PID.TID 0000.0001) PTRACERS_names = /* Tracer short name */
(PID.TID 0000.0001)               'Phy18'
(PID.TID 0000.0001)     ;
(PID.TID 0000.0001) PTRACERS_long_names = /* Tracer long name */
(PID.TID 0000.0001)               ''
(PID.TID 0000.0001)     ;
(PID.TID 0000.0001) PTRACERS_ioLabel = /* tracer IO Label */
(PID.TID 0000.0001)               '39'
(PID.TID 0000.0001)     ;
(PID.TID 0000.0001) PTRACERS_advScheme = /* Advection Scheme */
(PID.TID 0000.0001)                      33
(PID.TID 0000.0001)     ;
(PID.TID 0000.0001) PTRACERS_ImplVertAdv = /* implicit vert. advection flag */
(PID.TID 0000.0001)                   F
(PID.TID 0000.0001)     ;
(PID.TID 0000.0001) PTRACERS_diffKh = /* Laplacian Diffusivity */
(PID.TID 0000.0001)                 0.000000000000000E+00
(PID.TID 0000.0001)     ;
(PID.TID 0000.0001) PTRACERS_diffK4 = /* Biharmonic Diffusivity */
(PID.TID 0000.0001)                 0.000000000000000E+00
(PID.TID 0000.0001)     ;
(PID.TID 0000.0001) PTRACERS_diffKrNr = /* Vertical Diffusivity */
(PID.TID 0000.0001)    35 @  1.000000000000000E-05              /* K =  1: 35 */
(PID.TID 0000.0001)     ;
(PID.TID 0000.0001) PTRACERS_useGMRedi = /* apply GM-Redi */
(PID.TID 0000.0001)                   F
(PID.TID 0000.0001)     ;
(PID.TID 0000.0001) PTRACERS_useDWNSLP = /* apply DOWN-SLOPE Flow */
(PID.TID 0000.0001)                   F
(PID.TID 0000.0001)     ;
(PID.TID 0000.0001) PTRACERS_useKPP = /* apply KPP scheme */
(PID.TID 0000.0001)                   F
(PID.TID 0000.0001)     ;
(PID.TID 0000.0001) PTRACERS_ref = /* Reference vertical profile */
(PID.TID 0000.0001)    35 @  0.000000000000000E+00              /* K =  1: 35 */
(PID.TID 0000.0001)     ;
(PID.TID 0000.0001) PTRACERS_EvPrRn =/* tracer conc. in Evap. & Rain */
(PID.TID 0000.0001)                 1.234567000000000E+05
(PID.TID 0000.0001)     ;
(PID.TID 0000.0001)  -----------------------------------
(PID.TID 0000.0001)  tracer number :   40
(PID.TID 0000.0001) PTRACERS_names = /* Tracer short name */
(PID.TID 0000.0001)               'Phy19'
(PID.TID 0000.0001)     ;
(PID.TID 0000.0001) PTRACERS_long_names = /* Tracer long name */
(PID.TID 0000.0001)               ''
(PID.TID 0000.0001)     ;
(PID.TID 0000.0001) PTRACERS_ioLabel = /* tracer IO Label */
(PID.TID 0000.0001)               '40'
(PID.TID 0000.0001)     ;
(PID.TID 0000.0001) PTRACERS_advScheme = /* Advection Scheme */
(PID.TID 0000.0001)                      33
(PID.TID 0000.0001)     ;
(PID.TID 0000.0001) PTRACERS_ImplVertAdv = /* implicit vert. advection flag */
(PID.TID 0000.0001)                   F
(PID.TID 0000.0001)     ;
(PID.TID 0000.0001) PTRACERS_diffKh = /* Laplacian Diffusivity */
(PID.TID 0000.0001)                 0.000000000000000E+00
(PID.TID 0000.0001)     ;
(PID.TID 0000.0001) PTRACERS_diffK4 = /* Biharmonic Diffusivity */
(PID.TID 0000.0001)                 0.000000000000000E+00
(PID.TID 0000.0001)     ;
(PID.TID 0000.0001) PTRACERS_diffKrNr = /* Vertical Diffusivity */
(PID.TID 0000.0001)    35 @  1.000000000000000E-05              /* K =  1: 35 */
(PID.TID 0000.0001)     ;
(PID.TID 0000.0001) PTRACERS_useGMRedi = /* apply GM-Redi */
(PID.TID 0000.0001)                   F
(PID.TID 0000.0001)     ;
(PID.TID 0000.0001) PTRACERS_useDWNSLP = /* apply DOWN-SLOPE Flow */
(PID.TID 0000.0001)                   F
(PID.TID 0000.0001)     ;
(PID.TID 0000.0001) PTRACERS_useKPP = /* apply KPP scheme */
(PID.TID 0000.0001)                   F
(PID.TID 0000.0001)     ;
(PID.TID 0000.0001) PTRACERS_ref = /* Reference vertical profile */
(PID.TID 0000.0001)    35 @  0.000000000000000E+00              /* K =  1: 35 */
(PID.TID 0000.0001)     ;
(PID.TID 0000.0001) PTRACERS_EvPrRn =/* tracer conc. in Evap. & Rain */
(PID.TID 0000.0001)                 1.234567000000000E+05
(PID.TID 0000.0001)     ;
(PID.TID 0000.0001)  -----------------------------------
(PID.TID 0000.0001)  tracer number :   41
(PID.TID 0000.0001) PTRACERS_names = /* Tracer short name */
(PID.TID 0000.0001)               'Phy20'
(PID.TID 0000.0001)     ;
(PID.TID 0000.0001) PTRACERS_long_names = /* Tracer long name */
(PID.TID 0000.0001)               ''
(PID.TID 0000.0001)     ;
(PID.TID 0000.0001) PTRACERS_ioLabel = /* tracer IO Label */
(PID.TID 0000.0001)               '41'
(PID.TID 0000.0001)     ;
(PID.TID 0000.0001) PTRACERS_advScheme = /* Advection Scheme */
(PID.TID 0000.0001)                      33
(PID.TID 0000.0001)     ;
(PID.TID 0000.0001) PTRACERS_ImplVertAdv = /* implicit vert. advection flag */
(PID.TID 0000.0001)                   F
(PID.TID 0000.0001)     ;
(PID.TID 0000.0001) PTRACERS_diffKh = /* Laplacian Diffusivity */
(PID.TID 0000.0001)                 0.000000000000000E+00
(PID.TID 0000.0001)     ;
(PID.TID 0000.0001) PTRACERS_diffK4 = /* Biharmonic Diffusivity */
(PID.TID 0000.0001)                 0.000000000000000E+00
(PID.TID 0000.0001)     ;
(PID.TID 0000.0001) PTRACERS_diffKrNr = /* Vertical Diffusivity */
(PID.TID 0000.0001)    35 @  1.000000000000000E-05              /* K =  1: 35 */
(PID.TID 0000.0001)     ;
(PID.TID 0000.0001) PTRACERS_useGMRedi = /* apply GM-Redi */
(PID.TID 0000.0001)                   F
(PID.TID 0000.0001)     ;
(PID.TID 0000.0001) PTRACERS_useDWNSLP = /* apply DOWN-SLOPE Flow */
(PID.TID 0000.0001)                   F
(PID.TID 0000.0001)     ;
(PID.TID 0000.0001) PTRACERS_useKPP = /* apply KPP scheme */
(PID.TID 0000.0001)                   F
(PID.TID 0000.0001)     ;
(PID.TID 0000.0001) PTRACERS_ref = /* Reference vertical profile */
(PID.TID 0000.0001)    35 @  0.000000000000000E+00              /* K =  1: 35 */
(PID.TID 0000.0001)     ;
(PID.TID 0000.0001) PTRACERS_EvPrRn =/* tracer conc. in Evap. & Rain */
(PID.TID 0000.0001)                 1.234567000000000E+05
(PID.TID 0000.0001)     ;
(PID.TID 0000.0001)  -----------------------------------
(PID.TID 0000.0001)  tracer number :   42
(PID.TID 0000.0001) PTRACERS_names = /* Tracer short name */
(PID.TID 0000.0001)               'Phy21'
(PID.TID 0000.0001)     ;
(PID.TID 0000.0001) PTRACERS_long_names = /* Tracer long name */
(PID.TID 0000.0001)               ''
(PID.TID 0000.0001)     ;
(PID.TID 0000.0001) PTRACERS_ioLabel = /* tracer IO Label */
(PID.TID 0000.0001)               '42'
(PID.TID 0000.0001)     ;
(PID.TID 0000.0001) PTRACERS_advScheme = /* Advection Scheme */
(PID.TID 0000.0001)                      33
(PID.TID 0000.0001)     ;
(PID.TID 0000.0001) PTRACERS_ImplVertAdv = /* implicit vert. advection flag */
(PID.TID 0000.0001)                   F
(PID.TID 0000.0001)     ;
(PID.TID 0000.0001) PTRACERS_diffKh = /* Laplacian Diffusivity */
(PID.TID 0000.0001)                 0.000000000000000E+00
(PID.TID 0000.0001)     ;
(PID.TID 0000.0001) PTRACERS_diffK4 = /* Biharmonic Diffusivity */
(PID.TID 0000.0001)                 0.000000000000000E+00
(PID.TID 0000.0001)     ;
(PID.TID 0000.0001) PTRACERS_diffKrNr = /* Vertical Diffusivity */
(PID.TID 0000.0001)    35 @  1.000000000000000E-05              /* K =  1: 35 */
(PID.TID 0000.0001)     ;
(PID.TID 0000.0001) PTRACERS_useGMRedi = /* apply GM-Redi */
(PID.TID 0000.0001)                   F
(PID.TID 0000.0001)     ;
(PID.TID 0000.0001) PTRACERS_useDWNSLP = /* apply DOWN-SLOPE Flow */
(PID.TID 0000.0001)                   F
(PID.TID 0000.0001)     ;
(PID.TID 0000.0001) PTRACERS_useKPP = /* apply KPP scheme */
(PID.TID 0000.0001)                   F
(PID.TID 0000.0001)     ;
(PID.TID 0000.0001) PTRACERS_ref = /* Reference vertical profile */
(PID.TID 0000.0001)    35 @  0.000000000000000E+00              /* K =  1: 35 */
(PID.TID 0000.0001)     ;
(PID.TID 0000.0001) PTRACERS_EvPrRn =/* tracer conc. in Evap. & Rain */
(PID.TID 0000.0001)                 1.234567000000000E+05
(PID.TID 0000.0001)     ;
(PID.TID 0000.0001)  -----------------------------------
(PID.TID 0000.0001)  tracer number :   43
(PID.TID 0000.0001) PTRACERS_names = /* Tracer short name */
(PID.TID 0000.0001)               'Phy22'
(PID.TID 0000.0001)     ;
(PID.TID 0000.0001) PTRACERS_long_names = /* Tracer long name */
(PID.TID 0000.0001)               ''
(PID.TID 0000.0001)     ;
(PID.TID 0000.0001) PTRACERS_ioLabel = /* tracer IO Label */
(PID.TID 0000.0001)               '43'
(PID.TID 0000.0001)     ;
(PID.TID 0000.0001) PTRACERS_advScheme = /* Advection Scheme */
(PID.TID 0000.0001)                      33
(PID.TID 0000.0001)     ;
(PID.TID 0000.0001) PTRACERS_ImplVertAdv = /* implicit vert. advection flag */
(PID.TID 0000.0001)                   F
(PID.TID 0000.0001)     ;
(PID.TID 0000.0001) PTRACERS_diffKh = /* Laplacian Diffusivity */
(PID.TID 0000.0001)                 0.000000000000000E+00
(PID.TID 0000.0001)     ;
(PID.TID 0000.0001) PTRACERS_diffK4 = /* Biharmonic Diffusivity */
(PID.TID 0000.0001)                 0.000000000000000E+00
(PID.TID 0000.0001)     ;
(PID.TID 0000.0001) PTRACERS_diffKrNr = /* Vertical Diffusivity */
(PID.TID 0000.0001)    35 @  1.000000000000000E-05              /* K =  1: 35 */
(PID.TID 0000.0001)     ;
(PID.TID 0000.0001) PTRACERS_useGMRedi = /* apply GM-Redi */
(PID.TID 0000.0001)                   F
(PID.TID 0000.0001)     ;
(PID.TID 0000.0001) PTRACERS_useDWNSLP = /* apply DOWN-SLOPE Flow */
(PID.TID 0000.0001)                   F
(PID.TID 0000.0001)     ;
(PID.TID 0000.0001) PTRACERS_useKPP = /* apply KPP scheme */
(PID.TID 0000.0001)                   F
(PID.TID 0000.0001)     ;
(PID.TID 0000.0001) PTRACERS_ref = /* Reference vertical profile */
(PID.TID 0000.0001)    35 @  0.000000000000000E+00              /* K =  1: 35 */
(PID.TID 0000.0001)     ;
(PID.TID 0000.0001) PTRACERS_EvPrRn =/* tracer conc. in Evap. & Rain */
(PID.TID 0000.0001)                 1.234567000000000E+05
(PID.TID 0000.0001)     ;
(PID.TID 0000.0001)  -----------------------------------
(PID.TID 0000.0001)  tracer number :   44
(PID.TID 0000.0001) PTRACERS_names = /* Tracer short name */
(PID.TID 0000.0001)               'Phy23'
(PID.TID 0000.0001)     ;
(PID.TID 0000.0001) PTRACERS_long_names = /* Tracer long name */
(PID.TID 0000.0001)               ''
(PID.TID 0000.0001)     ;
(PID.TID 0000.0001) PTRACERS_ioLabel = /* tracer IO Label */
(PID.TID 0000.0001)               '44'
(PID.TID 0000.0001)     ;
(PID.TID 0000.0001) PTRACERS_advScheme = /* Advection Scheme */
(PID.TID 0000.0001)                      33
(PID.TID 0000.0001)     ;
(PID.TID 0000.0001) PTRACERS_ImplVertAdv = /* implicit vert. advection flag */
(PID.TID 0000.0001)                   F
(PID.TID 0000.0001)     ;
(PID.TID 0000.0001) PTRACERS_diffKh = /* Laplacian Diffusivity */
(PID.TID 0000.0001)                 0.000000000000000E+00
(PID.TID 0000.0001)     ;
(PID.TID 0000.0001) PTRACERS_diffK4 = /* Biharmonic Diffusivity */
(PID.TID 0000.0001)                 0.000000000000000E+00
(PID.TID 0000.0001)     ;
(PID.TID 0000.0001) PTRACERS_diffKrNr = /* Vertical Diffusivity */
(PID.TID 0000.0001)    35 @  1.000000000000000E-05              /* K =  1: 35 */
(PID.TID 0000.0001)     ;
(PID.TID 0000.0001) PTRACERS_useGMRedi = /* apply GM-Redi */
(PID.TID 0000.0001)                   F
(PID.TID 0000.0001)     ;
(PID.TID 0000.0001) PTRACERS_useDWNSLP = /* apply DOWN-SLOPE Flow */
(PID.TID 0000.0001)                   F
(PID.TID 0000.0001)     ;
(PID.TID 0000.0001) PTRACERS_useKPP = /* apply KPP scheme */
(PID.TID 0000.0001)                   F
(PID.TID 0000.0001)     ;
(PID.TID 0000.0001) PTRACERS_ref = /* Reference vertical profile */
(PID.TID 0000.0001)    35 @  0.000000000000000E+00              /* K =  1: 35 */
(PID.TID 0000.0001)     ;
(PID.TID 0000.0001) PTRACERS_EvPrRn =/* tracer conc. in Evap. & Rain */
(PID.TID 0000.0001)                 1.234567000000000E+05
(PID.TID 0000.0001)     ;
(PID.TID 0000.0001)  -----------------------------------
(PID.TID 0000.0001)  tracer number :   45
(PID.TID 0000.0001) PTRACERS_names = /* Tracer short name */
(PID.TID 0000.0001)               'Phy24'
(PID.TID 0000.0001)     ;
(PID.TID 0000.0001) PTRACERS_long_names = /* Tracer long name */
(PID.TID 0000.0001)               ''
(PID.TID 0000.0001)     ;
(PID.TID 0000.0001) PTRACERS_ioLabel = /* tracer IO Label */
(PID.TID 0000.0001)               '45'
(PID.TID 0000.0001)     ;
(PID.TID 0000.0001) PTRACERS_advScheme = /* Advection Scheme */
(PID.TID 0000.0001)                      33
(PID.TID 0000.0001)     ;
(PID.TID 0000.0001) PTRACERS_ImplVertAdv = /* implicit vert. advection flag */
(PID.TID 0000.0001)                   F
(PID.TID 0000.0001)     ;
(PID.TID 0000.0001) PTRACERS_diffKh = /* Laplacian Diffusivity */
(PID.TID 0000.0001)                 0.000000000000000E+00
(PID.TID 0000.0001)     ;
(PID.TID 0000.0001) PTRACERS_diffK4 = /* Biharmonic Diffusivity */
(PID.TID 0000.0001)                 0.000000000000000E+00
(PID.TID 0000.0001)     ;
(PID.TID 0000.0001) PTRACERS_diffKrNr = /* Vertical Diffusivity */
(PID.TID 0000.0001)    35 @  1.000000000000000E-05              /* K =  1: 35 */
(PID.TID 0000.0001)     ;
(PID.TID 0000.0001) PTRACERS_useGMRedi = /* apply GM-Redi */
(PID.TID 0000.0001)                   F
(PID.TID 0000.0001)     ;
(PID.TID 0000.0001) PTRACERS_useDWNSLP = /* apply DOWN-SLOPE Flow */
(PID.TID 0000.0001)                   F
(PID.TID 0000.0001)     ;
(PID.TID 0000.0001) PTRACERS_useKPP = /* apply KPP scheme */
(PID.TID 0000.0001)                   F
(PID.TID 0000.0001)     ;
(PID.TID 0000.0001) PTRACERS_ref = /* Reference vertical profile */
(PID.TID 0000.0001)    35 @  0.000000000000000E+00              /* K =  1: 35 */
(PID.TID 0000.0001)     ;
(PID.TID 0000.0001) PTRACERS_EvPrRn =/* tracer conc. in Evap. & Rain */
(PID.TID 0000.0001)                 1.234567000000000E+05
(PID.TID 0000.0001)     ;
(PID.TID 0000.0001)  -----------------------------------
(PID.TID 0000.0001)  tracer number :   46
(PID.TID 0000.0001) PTRACERS_names = /* Tracer short name */
(PID.TID 0000.0001)               'Phy25'
(PID.TID 0000.0001)     ;
(PID.TID 0000.0001) PTRACERS_long_names = /* Tracer long name */
(PID.TID 0000.0001)               ''
(PID.TID 0000.0001)     ;
(PID.TID 0000.0001) PTRACERS_ioLabel = /* tracer IO Label */
(PID.TID 0000.0001)               '46'
(PID.TID 0000.0001)     ;
(PID.TID 0000.0001) PTRACERS_advScheme = /* Advection Scheme */
(PID.TID 0000.0001)                      33
(PID.TID 0000.0001)     ;
(PID.TID 0000.0001) PTRACERS_ImplVertAdv = /* implicit vert. advection flag */
(PID.TID 0000.0001)                   F
(PID.TID 0000.0001)     ;
(PID.TID 0000.0001) PTRACERS_diffKh = /* Laplacian Diffusivity */
(PID.TID 0000.0001)                 0.000000000000000E+00
(PID.TID 0000.0001)     ;
(PID.TID 0000.0001) PTRACERS_diffK4 = /* Biharmonic Diffusivity */
(PID.TID 0000.0001)                 0.000000000000000E+00
(PID.TID 0000.0001)     ;
(PID.TID 0000.0001) PTRACERS_diffKrNr = /* Vertical Diffusivity */
(PID.TID 0000.0001)    35 @  1.000000000000000E-05              /* K =  1: 35 */
(PID.TID 0000.0001)     ;
(PID.TID 0000.0001) PTRACERS_useGMRedi = /* apply GM-Redi */
(PID.TID 0000.0001)                   F
(PID.TID 0000.0001)     ;
(PID.TID 0000.0001) PTRACERS_useDWNSLP = /* apply DOWN-SLOPE Flow */
(PID.TID 0000.0001)                   F
(PID.TID 0000.0001)     ;
(PID.TID 0000.0001) PTRACERS_useKPP = /* apply KPP scheme */
(PID.TID 0000.0001)                   F
(PID.TID 0000.0001)     ;
(PID.TID 0000.0001) PTRACERS_ref = /* Reference vertical profile */
(PID.TID 0000.0001)    35 @  0.000000000000000E+00              /* K =  1: 35 */
(PID.TID 0000.0001)     ;
(PID.TID 0000.0001) PTRACERS_EvPrRn =/* tracer conc. in Evap. & Rain */
(PID.TID 0000.0001)                 1.234567000000000E+05
(PID.TID 0000.0001)     ;
(PID.TID 0000.0001)  -----------------------------------
(PID.TID 0000.0001)  tracer number :   47
(PID.TID 0000.0001) PTRACERS_names = /* Tracer short name */
(PID.TID 0000.0001)               'Phy26'
(PID.TID 0000.0001)     ;
(PID.TID 0000.0001) PTRACERS_long_names = /* Tracer long name */
(PID.TID 0000.0001)               ''
(PID.TID 0000.0001)     ;
(PID.TID 0000.0001) PTRACERS_ioLabel = /* tracer IO Label */
(PID.TID 0000.0001)               '47'
(PID.TID 0000.0001)     ;
(PID.TID 0000.0001) PTRACERS_advScheme = /* Advection Scheme */
(PID.TID 0000.0001)                      33
(PID.TID 0000.0001)     ;
(PID.TID 0000.0001) PTRACERS_ImplVertAdv = /* implicit vert. advection flag */
(PID.TID 0000.0001)                   F
(PID.TID 0000.0001)     ;
(PID.TID 0000.0001) PTRACERS_diffKh = /* Laplacian Diffusivity */
(PID.TID 0000.0001)                 0.000000000000000E+00
(PID.TID 0000.0001)     ;
(PID.TID 0000.0001) PTRACERS_diffK4 = /* Biharmonic Diffusivity */
(PID.TID 0000.0001)                 0.000000000000000E+00
(PID.TID 0000.0001)     ;
(PID.TID 0000.0001) PTRACERS_diffKrNr = /* Vertical Diffusivity */
(PID.TID 0000.0001)    35 @  1.000000000000000E-05              /* K =  1: 35 */
(PID.TID 0000.0001)     ;
(PID.TID 0000.0001) PTRACERS_useGMRedi = /* apply GM-Redi */
(PID.TID 0000.0001)                   F
(PID.TID 0000.0001)     ;
(PID.TID 0000.0001) PTRACERS_useDWNSLP = /* apply DOWN-SLOPE Flow */
(PID.TID 0000.0001)                   F
(PID.TID 0000.0001)     ;
(PID.TID 0000.0001) PTRACERS_useKPP = /* apply KPP scheme */
(PID.TID 0000.0001)                   F
(PID.TID 0000.0001)     ;
(PID.TID 0000.0001) PTRACERS_ref = /* Reference vertical profile */
(PID.TID 0000.0001)    35 @  0.000000000000000E+00              /* K =  1: 35 */
(PID.TID 0000.0001)     ;
(PID.TID 0000.0001) PTRACERS_EvPrRn =/* tracer conc. in Evap. & Rain */
(PID.TID 0000.0001)                 1.234567000000000E+05
(PID.TID 0000.0001)     ;
(PID.TID 0000.0001)  -----------------------------------
(PID.TID 0000.0001)  tracer number :   48
(PID.TID 0000.0001) PTRACERS_names = /* Tracer short name */
(PID.TID 0000.0001)               'Phy27'
(PID.TID 0000.0001)     ;
(PID.TID 0000.0001) PTRACERS_long_names = /* Tracer long name */
(PID.TID 0000.0001)               ''
(PID.TID 0000.0001)     ;
(PID.TID 0000.0001) PTRACERS_ioLabel = /* tracer IO Label */
(PID.TID 0000.0001)               '48'
(PID.TID 0000.0001)     ;
(PID.TID 0000.0001) PTRACERS_advScheme = /* Advection Scheme */
(PID.TID 0000.0001)                      33
(PID.TID 0000.0001)     ;
(PID.TID 0000.0001) PTRACERS_ImplVertAdv = /* implicit vert. advection flag */
(PID.TID 0000.0001)                   F
(PID.TID 0000.0001)     ;
(PID.TID 0000.0001) PTRACERS_diffKh = /* Laplacian Diffusivity */
(PID.TID 0000.0001)                 0.000000000000000E+00
(PID.TID 0000.0001)     ;
(PID.TID 0000.0001) PTRACERS_diffK4 = /* Biharmonic Diffusivity */
(PID.TID 0000.0001)                 0.000000000000000E+00
(PID.TID 0000.0001)     ;
(PID.TID 0000.0001) PTRACERS_diffKrNr = /* Vertical Diffusivity */
(PID.TID 0000.0001)    35 @  1.000000000000000E-05              /* K =  1: 35 */
(PID.TID 0000.0001)     ;
(PID.TID 0000.0001) PTRACERS_useGMRedi = /* apply GM-Redi */
(PID.TID 0000.0001)                   F
(PID.TID 0000.0001)     ;
(PID.TID 0000.0001) PTRACERS_useDWNSLP = /* apply DOWN-SLOPE Flow */
(PID.TID 0000.0001)                   F
(PID.TID 0000.0001)     ;
(PID.TID 0000.0001) PTRACERS_useKPP = /* apply KPP scheme */
(PID.TID 0000.0001)                   F
(PID.TID 0000.0001)     ;
(PID.TID 0000.0001) PTRACERS_ref = /* Reference vertical profile */
(PID.TID 0000.0001)    35 @  0.000000000000000E+00              /* K =  1: 35 */
(PID.TID 0000.0001)     ;
(PID.TID 0000.0001) PTRACERS_EvPrRn =/* tracer conc. in Evap. & Rain */
(PID.TID 0000.0001)                 1.234567000000000E+05
(PID.TID 0000.0001)     ;
(PID.TID 0000.0001)  -----------------------------------
(PID.TID 0000.0001)  tracer number :   49
(PID.TID 0000.0001) PTRACERS_names = /* Tracer short name */
(PID.TID 0000.0001)               'Phy28'
(PID.TID 0000.0001)     ;
(PID.TID 0000.0001) PTRACERS_long_names = /* Tracer long name */
(PID.TID 0000.0001)               ''
(PID.TID 0000.0001)     ;
(PID.TID 0000.0001) PTRACERS_ioLabel = /* tracer IO Label */
(PID.TID 0000.0001)               '49'
(PID.TID 0000.0001)     ;
(PID.TID 0000.0001) PTRACERS_advScheme = /* Advection Scheme */
(PID.TID 0000.0001)                      33
(PID.TID 0000.0001)     ;
(PID.TID 0000.0001) PTRACERS_ImplVertAdv = /* implicit vert. advection flag */
(PID.TID 0000.0001)                   F
(PID.TID 0000.0001)     ;
(PID.TID 0000.0001) PTRACERS_diffKh = /* Laplacian Diffusivity */
(PID.TID 0000.0001)                 0.000000000000000E+00
(PID.TID 0000.0001)     ;
(PID.TID 0000.0001) PTRACERS_diffK4 = /* Biharmonic Diffusivity */
(PID.TID 0000.0001)                 0.000000000000000E+00
(PID.TID 0000.0001)     ;
(PID.TID 0000.0001) PTRACERS_diffKrNr = /* Vertical Diffusivity */
(PID.TID 0000.0001)    35 @  1.000000000000000E-05              /* K =  1: 35 */
(PID.TID 0000.0001)     ;
(PID.TID 0000.0001) PTRACERS_useGMRedi = /* apply GM-Redi */
(PID.TID 0000.0001)                   F
(PID.TID 0000.0001)     ;
(PID.TID 0000.0001) PTRACERS_useDWNSLP = /* apply DOWN-SLOPE Flow */
(PID.TID 0000.0001)                   F
(PID.TID 0000.0001)     ;
(PID.TID 0000.0001) PTRACERS_useKPP = /* apply KPP scheme */
(PID.TID 0000.0001)                   F
(PID.TID 0000.0001)     ;
(PID.TID 0000.0001) PTRACERS_ref = /* Reference vertical profile */
(PID.TID 0000.0001)    35 @  0.000000000000000E+00              /* K =  1: 35 */
(PID.TID 0000.0001)     ;
(PID.TID 0000.0001) PTRACERS_EvPrRn =/* tracer conc. in Evap. & Rain */
(PID.TID 0000.0001)                 1.234567000000000E+05
(PID.TID 0000.0001)     ;
(PID.TID 0000.0001)  -----------------------------------
(PID.TID 0000.0001)  tracer number :   50
(PID.TID 0000.0001) PTRACERS_names = /* Tracer short name */
(PID.TID 0000.0001)               'Phy29'
(PID.TID 0000.0001)     ;
(PID.TID 0000.0001) PTRACERS_long_names = /* Tracer long name */
(PID.TID 0000.0001)               ''
(PID.TID 0000.0001)     ;
(PID.TID 0000.0001) PTRACERS_ioLabel = /* tracer IO Label */
(PID.TID 0000.0001)               '50'
(PID.TID 0000.0001)     ;
(PID.TID 0000.0001) PTRACERS_advScheme = /* Advection Scheme */
(PID.TID 0000.0001)                      33
(PID.TID 0000.0001)     ;
(PID.TID 0000.0001) PTRACERS_ImplVertAdv = /* implicit vert. advection flag */
(PID.TID 0000.0001)                   F
(PID.TID 0000.0001)     ;
(PID.TID 0000.0001) PTRACERS_diffKh = /* Laplacian Diffusivity */
(PID.TID 0000.0001)                 0.000000000000000E+00
(PID.TID 0000.0001)     ;
(PID.TID 0000.0001) PTRACERS_diffK4 = /* Biharmonic Diffusivity */
(PID.TID 0000.0001)                 0.000000000000000E+00
(PID.TID 0000.0001)     ;
(PID.TID 0000.0001) PTRACERS_diffKrNr = /* Vertical Diffusivity */
(PID.TID 0000.0001)    35 @  1.000000000000000E-05              /* K =  1: 35 */
(PID.TID 0000.0001)     ;
(PID.TID 0000.0001) PTRACERS_useGMRedi = /* apply GM-Redi */
(PID.TID 0000.0001)                   F
(PID.TID 0000.0001)     ;
(PID.TID 0000.0001) PTRACERS_useDWNSLP = /* apply DOWN-SLOPE Flow */
(PID.TID 0000.0001)                   F
(PID.TID 0000.0001)     ;
(PID.TID 0000.0001) PTRACERS_useKPP = /* apply KPP scheme */
(PID.TID 0000.0001)                   F
(PID.TID 0000.0001)     ;
(PID.TID 0000.0001) PTRACERS_ref = /* Reference vertical profile */
(PID.TID 0000.0001)    35 @  0.000000000000000E+00              /* K =  1: 35 */
(PID.TID 0000.0001)     ;
(PID.TID 0000.0001) PTRACERS_EvPrRn =/* tracer conc. in Evap. & Rain */
(PID.TID 0000.0001)                 1.234567000000000E+05
(PID.TID 0000.0001)     ;
(PID.TID 0000.0001)  -----------------------------------
(PID.TID 0000.0001)  tracer number :   51
(PID.TID 0000.0001) PTRACERS_names = /* Tracer short name */
(PID.TID 0000.0001)               'Phy30'
(PID.TID 0000.0001)     ;
(PID.TID 0000.0001) PTRACERS_long_names = /* Tracer long name */
(PID.TID 0000.0001)               ''
(PID.TID 0000.0001)     ;
(PID.TID 0000.0001) PTRACERS_ioLabel = /* tracer IO Label */
(PID.TID 0000.0001)               '51'
(PID.TID 0000.0001)     ;
(PID.TID 0000.0001) PTRACERS_advScheme = /* Advection Scheme */
(PID.TID 0000.0001)                      33
(PID.TID 0000.0001)     ;
(PID.TID 0000.0001) PTRACERS_ImplVertAdv = /* implicit vert. advection flag */
(PID.TID 0000.0001)                   F
(PID.TID 0000.0001)     ;
(PID.TID 0000.0001) PTRACERS_diffKh = /* Laplacian Diffusivity */
(PID.TID 0000.0001)                 0.000000000000000E+00
(PID.TID 0000.0001)     ;
(PID.TID 0000.0001) PTRACERS_diffK4 = /* Biharmonic Diffusivity */
(PID.TID 0000.0001)                 0.000000000000000E+00
(PID.TID 0000.0001)     ;
(PID.TID 0000.0001) PTRACERS_diffKrNr = /* Vertical Diffusivity */
(PID.TID 0000.0001)    35 @  1.000000000000000E-05              /* K =  1: 35 */
(PID.TID 0000.0001)     ;
(PID.TID 0000.0001) PTRACERS_useGMRedi = /* apply GM-Redi */
(PID.TID 0000.0001)                   F
(PID.TID 0000.0001)     ;
(PID.TID 0000.0001) PTRACERS_useDWNSLP = /* apply DOWN-SLOPE Flow */
(PID.TID 0000.0001)                   F
(PID.TID 0000.0001)     ;
(PID.TID 0000.0001) PTRACERS_useKPP = /* apply KPP scheme */
(PID.TID 0000.0001)                   F
(PID.TID 0000.0001)     ;
(PID.TID 0000.0001) PTRACERS_ref = /* Reference vertical profile */
(PID.TID 0000.0001)    35 @  0.000000000000000E+00              /* K =  1: 35 */
(PID.TID 0000.0001)     ;
(PID.TID 0000.0001) PTRACERS_EvPrRn =/* tracer conc. in Evap. & Rain */
(PID.TID 0000.0001)                 1.234567000000000E+05
(PID.TID 0000.0001)     ;
(PID.TID 0000.0001)  -----------------------------------
(PID.TID 0000.0001)  tracer number :   52
(PID.TID 0000.0001) PTRACERS_names = /* Tracer short name */
(PID.TID 0000.0001)               'Phy31'
(PID.TID 0000.0001)     ;
(PID.TID 0000.0001) PTRACERS_long_names = /* Tracer long name */
(PID.TID 0000.0001)               ''
(PID.TID 0000.0001)     ;
(PID.TID 0000.0001) PTRACERS_ioLabel = /* tracer IO Label */
(PID.TID 0000.0001)               '52'
(PID.TID 0000.0001)     ;
(PID.TID 0000.0001) PTRACERS_advScheme = /* Advection Scheme */
(PID.TID 0000.0001)                      33
(PID.TID 0000.0001)     ;
(PID.TID 0000.0001) PTRACERS_ImplVertAdv = /* implicit vert. advection flag */
(PID.TID 0000.0001)                   F
(PID.TID 0000.0001)     ;
(PID.TID 0000.0001) PTRACERS_diffKh = /* Laplacian Diffusivity */
(PID.TID 0000.0001)                 0.000000000000000E+00
(PID.TID 0000.0001)     ;
(PID.TID 0000.0001) PTRACERS_diffK4 = /* Biharmonic Diffusivity */
(PID.TID 0000.0001)                 0.000000000000000E+00
(PID.TID 0000.0001)     ;
(PID.TID 0000.0001) PTRACERS_diffKrNr = /* Vertical Diffusivity */
(PID.TID 0000.0001)    35 @  1.000000000000000E-05              /* K =  1: 35 */
(PID.TID 0000.0001)     ;
(PID.TID 0000.0001) PTRACERS_useGMRedi = /* apply GM-Redi */
(PID.TID 0000.0001)                   F
(PID.TID 0000.0001)     ;
(PID.TID 0000.0001) PTRACERS_useDWNSLP = /* apply DOWN-SLOPE Flow */
(PID.TID 0000.0001)                   F
(PID.TID 0000.0001)     ;
(PID.TID 0000.0001) PTRACERS_useKPP = /* apply KPP scheme */
(PID.TID 0000.0001)                   F
(PID.TID 0000.0001)     ;
(PID.TID 0000.0001) PTRACERS_ref = /* Reference vertical profile */
(PID.TID 0000.0001)    35 @  0.000000000000000E+00              /* K =  1: 35 */
(PID.TID 0000.0001)     ;
(PID.TID 0000.0001) PTRACERS_EvPrRn =/* tracer conc. in Evap. & Rain */
(PID.TID 0000.0001)                 1.234567000000000E+05
(PID.TID 0000.0001)     ;
(PID.TID 0000.0001)  -----------------------------------
(PID.TID 0000.0001)  tracer number :   53
(PID.TID 0000.0001) PTRACERS_names = /* Tracer short name */
(PID.TID 0000.0001)               'Phy32'
(PID.TID 0000.0001)     ;
(PID.TID 0000.0001) PTRACERS_long_names = /* Tracer long name */
(PID.TID 0000.0001)               ''
(PID.TID 0000.0001)     ;
(PID.TID 0000.0001) PTRACERS_ioLabel = /* tracer IO Label */
(PID.TID 0000.0001)               '53'
(PID.TID 0000.0001)     ;
(PID.TID 0000.0001) PTRACERS_advScheme = /* Advection Scheme */
(PID.TID 0000.0001)                      33
(PID.TID 0000.0001)     ;
(PID.TID 0000.0001) PTRACERS_ImplVertAdv = /* implicit vert. advection flag */
(PID.TID 0000.0001)                   F
(PID.TID 0000.0001)     ;
(PID.TID 0000.0001) PTRACERS_diffKh = /* Laplacian Diffusivity */
(PID.TID 0000.0001)                 0.000000000000000E+00
(PID.TID 0000.0001)     ;
(PID.TID 0000.0001) PTRACERS_diffK4 = /* Biharmonic Diffusivity */
(PID.TID 0000.0001)                 0.000000000000000E+00
(PID.TID 0000.0001)     ;
(PID.TID 0000.0001) PTRACERS_diffKrNr = /* Vertical Diffusivity */
(PID.TID 0000.0001)    35 @  1.000000000000000E-05              /* K =  1: 35 */
(PID.TID 0000.0001)     ;
(PID.TID 0000.0001) PTRACERS_useGMRedi = /* apply GM-Redi */
(PID.TID 0000.0001)                   F
(PID.TID 0000.0001)     ;
(PID.TID 0000.0001) PTRACERS_useDWNSLP = /* apply DOWN-SLOPE Flow */
(PID.TID 0000.0001)                   F
(PID.TID 0000.0001)     ;
(PID.TID 0000.0001) PTRACERS_useKPP = /* apply KPP scheme */
(PID.TID 0000.0001)                   F
(PID.TID 0000.0001)     ;
(PID.TID 0000.0001) PTRACERS_ref = /* Reference vertical profile */
(PID.TID 0000.0001)    35 @  0.000000000000000E+00              /* K =  1: 35 */
(PID.TID 0000.0001)     ;
(PID.TID 0000.0001) PTRACERS_EvPrRn =/* tracer conc. in Evap. & Rain */
(PID.TID 0000.0001)                 1.234567000000000E+05
(PID.TID 0000.0001)     ;
(PID.TID 0000.0001)  -----------------------------------
(PID.TID 0000.0001)  tracer number :   54
(PID.TID 0000.0001) PTRACERS_names = /* Tracer short name */
(PID.TID 0000.0001)               'Phy33'
(PID.TID 0000.0001)     ;
(PID.TID 0000.0001) PTRACERS_long_names = /* Tracer long name */
(PID.TID 0000.0001)               ''
(PID.TID 0000.0001)     ;
(PID.TID 0000.0001) PTRACERS_ioLabel = /* tracer IO Label */
(PID.TID 0000.0001)               '54'
(PID.TID 0000.0001)     ;
(PID.TID 0000.0001) PTRACERS_advScheme = /* Advection Scheme */
(PID.TID 0000.0001)                      33
(PID.TID 0000.0001)     ;
(PID.TID 0000.0001) PTRACERS_ImplVertAdv = /* implicit vert. advection flag */
(PID.TID 0000.0001)                   F
(PID.TID 0000.0001)     ;
(PID.TID 0000.0001) PTRACERS_diffKh = /* Laplacian Diffusivity */
(PID.TID 0000.0001)                 0.000000000000000E+00
(PID.TID 0000.0001)     ;
(PID.TID 0000.0001) PTRACERS_diffK4 = /* Biharmonic Diffusivity */
(PID.TID 0000.0001)                 0.000000000000000E+00
(PID.TID 0000.0001)     ;
(PID.TID 0000.0001) PTRACERS_diffKrNr = /* Vertical Diffusivity */
(PID.TID 0000.0001)    35 @  1.000000000000000E-05              /* K =  1: 35 */
(PID.TID 0000.0001)     ;
(PID.TID 0000.0001) PTRACERS_useGMRedi = /* apply GM-Redi */
(PID.TID 0000.0001)                   F
(PID.TID 0000.0001)     ;
(PID.TID 0000.0001) PTRACERS_useDWNSLP = /* apply DOWN-SLOPE Flow */
(PID.TID 0000.0001)                   F
(PID.TID 0000.0001)     ;
(PID.TID 0000.0001) PTRACERS_useKPP = /* apply KPP scheme */
(PID.TID 0000.0001)                   F
(PID.TID 0000.0001)     ;
(PID.TID 0000.0001) PTRACERS_ref = /* Reference vertical profile */
(PID.TID 0000.0001)    35 @  0.000000000000000E+00              /* K =  1: 35 */
(PID.TID 0000.0001)     ;
(PID.TID 0000.0001) PTRACERS_EvPrRn =/* tracer conc. in Evap. & Rain */
(PID.TID 0000.0001)                 1.234567000000000E+05
(PID.TID 0000.0001)     ;
(PID.TID 0000.0001)  -----------------------------------
(PID.TID 0000.0001)  tracer number :   55
(PID.TID 0000.0001) PTRACERS_names = /* Tracer short name */
(PID.TID 0000.0001)               'Phy34'
(PID.TID 0000.0001)     ;
(PID.TID 0000.0001) PTRACERS_long_names = /* Tracer long name */
(PID.TID 0000.0001)               ''
(PID.TID 0000.0001)     ;
(PID.TID 0000.0001) PTRACERS_ioLabel = /* tracer IO Label */
(PID.TID 0000.0001)               '55'
(PID.TID 0000.0001)     ;
(PID.TID 0000.0001) PTRACERS_advScheme = /* Advection Scheme */
(PID.TID 0000.0001)                      33
(PID.TID 0000.0001)     ;
(PID.TID 0000.0001) PTRACERS_ImplVertAdv = /* implicit vert. advection flag */
(PID.TID 0000.0001)                   F
(PID.TID 0000.0001)     ;
(PID.TID 0000.0001) PTRACERS_diffKh = /* Laplacian Diffusivity */
(PID.TID 0000.0001)                 0.000000000000000E+00
(PID.TID 0000.0001)     ;
(PID.TID 0000.0001) PTRACERS_diffK4 = /* Biharmonic Diffusivity */
(PID.TID 0000.0001)                 0.000000000000000E+00
(PID.TID 0000.0001)     ;
(PID.TID 0000.0001) PTRACERS_diffKrNr = /* Vertical Diffusivity */
(PID.TID 0000.0001)    35 @  1.000000000000000E-05              /* K =  1: 35 */
(PID.TID 0000.0001)     ;
(PID.TID 0000.0001) PTRACERS_useGMRedi = /* apply GM-Redi */
(PID.TID 0000.0001)                   F
(PID.TID 0000.0001)     ;
(PID.TID 0000.0001) PTRACERS_useDWNSLP = /* apply DOWN-SLOPE Flow */
(PID.TID 0000.0001)                   F
(PID.TID 0000.0001)     ;
(PID.TID 0000.0001) PTRACERS_useKPP = /* apply KPP scheme */
(PID.TID 0000.0001)                   F
(PID.TID 0000.0001)     ;
(PID.TID 0000.0001) PTRACERS_ref = /* Reference vertical profile */
(PID.TID 0000.0001)    35 @  0.000000000000000E+00              /* K =  1: 35 */
(PID.TID 0000.0001)     ;
(PID.TID 0000.0001) PTRACERS_EvPrRn =/* tracer conc. in Evap. & Rain */
(PID.TID 0000.0001)                 1.234567000000000E+05
(PID.TID 0000.0001)     ;
(PID.TID 0000.0001)  -----------------------------------
(PID.TID 0000.0001)  tracer number :   56
(PID.TID 0000.0001) PTRACERS_names = /* Tracer short name */
(PID.TID 0000.0001)               'Phy35'
(PID.TID 0000.0001)     ;
(PID.TID 0000.0001) PTRACERS_long_names = /* Tracer long name */
(PID.TID 0000.0001)               ''
(PID.TID 0000.0001)     ;
(PID.TID 0000.0001) PTRACERS_ioLabel = /* tracer IO Label */
(PID.TID 0000.0001)               '56'
(PID.TID 0000.0001)     ;
(PID.TID 0000.0001) PTRACERS_advScheme = /* Advection Scheme */
(PID.TID 0000.0001)                      33
(PID.TID 0000.0001)     ;
(PID.TID 0000.0001) PTRACERS_ImplVertAdv = /* implicit vert. advection flag */
(PID.TID 0000.0001)                   F
(PID.TID 0000.0001)     ;
(PID.TID 0000.0001) PTRACERS_diffKh = /* Laplacian Diffusivity */
(PID.TID 0000.0001)                 0.000000000000000E+00
(PID.TID 0000.0001)     ;
(PID.TID 0000.0001) PTRACERS_diffK4 = /* Biharmonic Diffusivity */
(PID.TID 0000.0001)                 0.000000000000000E+00
(PID.TID 0000.0001)     ;
(PID.TID 0000.0001) PTRACERS_diffKrNr = /* Vertical Diffusivity */
(PID.TID 0000.0001)    35 @  1.000000000000000E-05              /* K =  1: 35 */
(PID.TID 0000.0001)     ;
(PID.TID 0000.0001) PTRACERS_useGMRedi = /* apply GM-Redi */
(PID.TID 0000.0001)                   F
(PID.TID 0000.0001)     ;
(PID.TID 0000.0001) PTRACERS_useDWNSLP = /* apply DOWN-SLOPE Flow */
(PID.TID 0000.0001)                   F
(PID.TID 0000.0001)     ;
(PID.TID 0000.0001) PTRACERS_useKPP = /* apply KPP scheme */
(PID.TID 0000.0001)                   F
(PID.TID 0000.0001)     ;
(PID.TID 0000.0001) PTRACERS_ref = /* Reference vertical profile */
(PID.TID 0000.0001)    35 @  0.000000000000000E+00              /* K =  1: 35 */
(PID.TID 0000.0001)     ;
(PID.TID 0000.0001) PTRACERS_EvPrRn =/* tracer conc. in Evap. & Rain */
(PID.TID 0000.0001)                 1.234567000000000E+05
(PID.TID 0000.0001)     ;
(PID.TID 0000.0001)  -----------------------------------
(PID.TID 0000.0001)  tracer number :   57
(PID.TID 0000.0001) PTRACERS_names = /* Tracer short name */
(PID.TID 0000.0001)               'Phy36'
(PID.TID 0000.0001)     ;
(PID.TID 0000.0001) PTRACERS_long_names = /* Tracer long name */
(PID.TID 0000.0001)               ''
(PID.TID 0000.0001)     ;
(PID.TID 0000.0001) PTRACERS_ioLabel = /* tracer IO Label */
(PID.TID 0000.0001)               '57'
(PID.TID 0000.0001)     ;
(PID.TID 0000.0001) PTRACERS_advScheme = /* Advection Scheme */
(PID.TID 0000.0001)                      33
(PID.TID 0000.0001)     ;
(PID.TID 0000.0001) PTRACERS_ImplVertAdv = /* implicit vert. advection flag */
(PID.TID 0000.0001)                   F
(PID.TID 0000.0001)     ;
(PID.TID 0000.0001) PTRACERS_diffKh = /* Laplacian Diffusivity */
(PID.TID 0000.0001)                 0.000000000000000E+00
(PID.TID 0000.0001)     ;
(PID.TID 0000.0001) PTRACERS_diffK4 = /* Biharmonic Diffusivity */
(PID.TID 0000.0001)                 0.000000000000000E+00
(PID.TID 0000.0001)     ;
(PID.TID 0000.0001) PTRACERS_diffKrNr = /* Vertical Diffusivity */
(PID.TID 0000.0001)    35 @  1.000000000000000E-05              /* K =  1: 35 */
(PID.TID 0000.0001)     ;
(PID.TID 0000.0001) PTRACERS_useGMRedi = /* apply GM-Redi */
(PID.TID 0000.0001)                   F
(PID.TID 0000.0001)     ;
(PID.TID 0000.0001) PTRACERS_useDWNSLP = /* apply DOWN-SLOPE Flow */
(PID.TID 0000.0001)                   F
(PID.TID 0000.0001)     ;
(PID.TID 0000.0001) PTRACERS_useKPP = /* apply KPP scheme */
(PID.TID 0000.0001)                   F
(PID.TID 0000.0001)     ;
(PID.TID 0000.0001) PTRACERS_ref = /* Reference vertical profile */
(PID.TID 0000.0001)    35 @  0.000000000000000E+00              /* K =  1: 35 */
(PID.TID 0000.0001)     ;
(PID.TID 0000.0001) PTRACERS_EvPrRn =/* tracer conc. in Evap. & Rain */
(PID.TID 0000.0001)                 1.234567000000000E+05
(PID.TID 0000.0001)     ;
(PID.TID 0000.0001)  -----------------------------------
(PID.TID 0000.0001)  tracer number :   58
(PID.TID 0000.0001) PTRACERS_names = /* Tracer short name */
(PID.TID 0000.0001)               'Phy37'
(PID.TID 0000.0001)     ;
(PID.TID 0000.0001) PTRACERS_long_names = /* Tracer long name */
(PID.TID 0000.0001)               ''
(PID.TID 0000.0001)     ;
(PID.TID 0000.0001) PTRACERS_ioLabel = /* tracer IO Label */
(PID.TID 0000.0001)               '58'
(PID.TID 0000.0001)     ;
(PID.TID 0000.0001) PTRACERS_advScheme = /* Advection Scheme */
(PID.TID 0000.0001)                      33
(PID.TID 0000.0001)     ;
(PID.TID 0000.0001) PTRACERS_ImplVertAdv = /* implicit vert. advection flag */
(PID.TID 0000.0001)                   F
(PID.TID 0000.0001)     ;
(PID.TID 0000.0001) PTRACERS_diffKh = /* Laplacian Diffusivity */
(PID.TID 0000.0001)                 0.000000000000000E+00
(PID.TID 0000.0001)     ;
(PID.TID 0000.0001) PTRACERS_diffK4 = /* Biharmonic Diffusivity */
(PID.TID 0000.0001)                 0.000000000000000E+00
(PID.TID 0000.0001)     ;
(PID.TID 0000.0001) PTRACERS_diffKrNr = /* Vertical Diffusivity */
(PID.TID 0000.0001)    35 @  1.000000000000000E-05              /* K =  1: 35 */
(PID.TID 0000.0001)     ;
(PID.TID 0000.0001) PTRACERS_useGMRedi = /* apply GM-Redi */
(PID.TID 0000.0001)                   F
(PID.TID 0000.0001)     ;
(PID.TID 0000.0001) PTRACERS_useDWNSLP = /* apply DOWN-SLOPE Flow */
(PID.TID 0000.0001)                   F
(PID.TID 0000.0001)     ;
(PID.TID 0000.0001) PTRACERS_useKPP = /* apply KPP scheme */
(PID.TID 0000.0001)                   F
(PID.TID 0000.0001)     ;
(PID.TID 0000.0001) PTRACERS_ref = /* Reference vertical profile */
(PID.TID 0000.0001)    35 @  0.000000000000000E+00              /* K =  1: 35 */
(PID.TID 0000.0001)     ;
(PID.TID 0000.0001) PTRACERS_EvPrRn =/* tracer conc. in Evap. & Rain */
(PID.TID 0000.0001)                 1.234567000000000E+05
(PID.TID 0000.0001)     ;
(PID.TID 0000.0001)  -----------------------------------
(PID.TID 0000.0001)  tracer number :   59
(PID.TID 0000.0001) PTRACERS_names = /* Tracer short name */
(PID.TID 0000.0001)               'Phy38'
(PID.TID 0000.0001)     ;
(PID.TID 0000.0001) PTRACERS_long_names = /* Tracer long name */
(PID.TID 0000.0001)               ''
(PID.TID 0000.0001)     ;
(PID.TID 0000.0001) PTRACERS_ioLabel = /* tracer IO Label */
(PID.TID 0000.0001)               '59'
(PID.TID 0000.0001)     ;
(PID.TID 0000.0001) PTRACERS_advScheme = /* Advection Scheme */
(PID.TID 0000.0001)                      33
(PID.TID 0000.0001)     ;
(PID.TID 0000.0001) PTRACERS_ImplVertAdv = /* implicit vert. advection flag */
(PID.TID 0000.0001)                   F
(PID.TID 0000.0001)     ;
(PID.TID 0000.0001) PTRACERS_diffKh = /* Laplacian Diffusivity */
(PID.TID 0000.0001)                 0.000000000000000E+00
(PID.TID 0000.0001)     ;
(PID.TID 0000.0001) PTRACERS_diffK4 = /* Biharmonic Diffusivity */
(PID.TID 0000.0001)                 0.000000000000000E+00
(PID.TID 0000.0001)     ;
(PID.TID 0000.0001) PTRACERS_diffKrNr = /* Vertical Diffusivity */
(PID.TID 0000.0001)    35 @  1.000000000000000E-05              /* K =  1: 35 */
(PID.TID 0000.0001)     ;
(PID.TID 0000.0001) PTRACERS_useGMRedi = /* apply GM-Redi */
(PID.TID 0000.0001)                   F
(PID.TID 0000.0001)     ;
(PID.TID 0000.0001) PTRACERS_useDWNSLP = /* apply DOWN-SLOPE Flow */
(PID.TID 0000.0001)                   F
(PID.TID 0000.0001)     ;
(PID.TID 0000.0001) PTRACERS_useKPP = /* apply KPP scheme */
(PID.TID 0000.0001)                   F
(PID.TID 0000.0001)     ;
(PID.TID 0000.0001) PTRACERS_ref = /* Reference vertical profile */
(PID.TID 0000.0001)    35 @  0.000000000000000E+00              /* K =  1: 35 */
(PID.TID 0000.0001)     ;
(PID.TID 0000.0001) PTRACERS_EvPrRn =/* tracer conc. in Evap. & Rain */
(PID.TID 0000.0001)                 1.234567000000000E+05
(PID.TID 0000.0001)     ;
(PID.TID 0000.0001)  -----------------------------------
(PID.TID 0000.0001)  tracer number :   60
(PID.TID 0000.0001) PTRACERS_names = /* Tracer short name */
(PID.TID 0000.0001)               'Phy39'
(PID.TID 0000.0001)     ;
(PID.TID 0000.0001) PTRACERS_long_names = /* Tracer long name */
(PID.TID 0000.0001)               ''
(PID.TID 0000.0001)     ;
(PID.TID 0000.0001) PTRACERS_ioLabel = /* tracer IO Label */
(PID.TID 0000.0001)               '60'
(PID.TID 0000.0001)     ;
(PID.TID 0000.0001) PTRACERS_advScheme = /* Advection Scheme */
(PID.TID 0000.0001)                      33
(PID.TID 0000.0001)     ;
(PID.TID 0000.0001) PTRACERS_ImplVertAdv = /* implicit vert. advection flag */
(PID.TID 0000.0001)                   F
(PID.TID 0000.0001)     ;
(PID.TID 0000.0001) PTRACERS_diffKh = /* Laplacian Diffusivity */
(PID.TID 0000.0001)                 0.000000000000000E+00
(PID.TID 0000.0001)     ;
(PID.TID 0000.0001) PTRACERS_diffK4 = /* Biharmonic Diffusivity */
(PID.TID 0000.0001)                 0.000000000000000E+00
(PID.TID 0000.0001)     ;
(PID.TID 0000.0001) PTRACERS_diffKrNr = /* Vertical Diffusivity */
(PID.TID 0000.0001)    35 @  1.000000000000000E-05              /* K =  1: 35 */
(PID.TID 0000.0001)     ;
(PID.TID 0000.0001) PTRACERS_useGMRedi = /* apply GM-Redi */
(PID.TID 0000.0001)                   F
(PID.TID 0000.0001)     ;
(PID.TID 0000.0001) PTRACERS_useDWNSLP = /* apply DOWN-SLOPE Flow */
(PID.TID 0000.0001)                   F
(PID.TID 0000.0001)     ;
(PID.TID 0000.0001) PTRACERS_useKPP = /* apply KPP scheme */
(PID.TID 0000.0001)                   F
(PID.TID 0000.0001)     ;
(PID.TID 0000.0001) PTRACERS_ref = /* Reference vertical profile */
(PID.TID 0000.0001)    35 @  0.000000000000000E+00              /* K =  1: 35 */
(PID.TID 0000.0001)     ;
(PID.TID 0000.0001) PTRACERS_EvPrRn =/* tracer conc. in Evap. & Rain */
(PID.TID 0000.0001)                 1.234567000000000E+05
(PID.TID 0000.0001)     ;
(PID.TID 0000.0001)  -----------------------------------
(PID.TID 0000.0001)  tracer number :   61
(PID.TID 0000.0001) PTRACERS_names = /* Tracer short name */
(PID.TID 0000.0001)               'Phy40'
(PID.TID 0000.0001)     ;
(PID.TID 0000.0001) PTRACERS_long_names = /* Tracer long name */
(PID.TID 0000.0001)               ''
(PID.TID 0000.0001)     ;
(PID.TID 0000.0001) PTRACERS_ioLabel = /* tracer IO Label */
(PID.TID 0000.0001)               '61'
(PID.TID 0000.0001)     ;
(PID.TID 0000.0001) PTRACERS_advScheme = /* Advection Scheme */
(PID.TID 0000.0001)                      33
(PID.TID 0000.0001)     ;
(PID.TID 0000.0001) PTRACERS_ImplVertAdv = /* implicit vert. advection flag */
(PID.TID 0000.0001)                   F
(PID.TID 0000.0001)     ;
(PID.TID 0000.0001) PTRACERS_diffKh = /* Laplacian Diffusivity */
(PID.TID 0000.0001)                 0.000000000000000E+00
(PID.TID 0000.0001)     ;
(PID.TID 0000.0001) PTRACERS_diffK4 = /* Biharmonic Diffusivity */
(PID.TID 0000.0001)                 0.000000000000000E+00
(PID.TID 0000.0001)     ;
(PID.TID 0000.0001) PTRACERS_diffKrNr = /* Vertical Diffusivity */
(PID.TID 0000.0001)    35 @  1.000000000000000E-05              /* K =  1: 35 */
(PID.TID 0000.0001)     ;
(PID.TID 0000.0001) PTRACERS_useGMRedi = /* apply GM-Redi */
(PID.TID 0000.0001)                   F
(PID.TID 0000.0001)     ;
(PID.TID 0000.0001) PTRACERS_useDWNSLP = /* apply DOWN-SLOPE Flow */
(PID.TID 0000.0001)                   F
(PID.TID 0000.0001)     ;
(PID.TID 0000.0001) PTRACERS_useKPP = /* apply KPP scheme */
(PID.TID 0000.0001)                   F
(PID.TID 0000.0001)     ;
(PID.TID 0000.0001) PTRACERS_ref = /* Reference vertical profile */
(PID.TID 0000.0001)    35 @  0.000000000000000E+00              /* K =  1: 35 */
(PID.TID 0000.0001)     ;
(PID.TID 0000.0001) PTRACERS_EvPrRn =/* tracer conc. in Evap. & Rain */
(PID.TID 0000.0001)                 1.234567000000000E+05
(PID.TID 0000.0001)     ;
(PID.TID 0000.0001)  -----------------------------------
(PID.TID 0000.0001)  tracer number :   62
(PID.TID 0000.0001) PTRACERS_names = /* Tracer short name */
(PID.TID 0000.0001)               'Phy41'
(PID.TID 0000.0001)     ;
(PID.TID 0000.0001) PTRACERS_long_names = /* Tracer long name */
(PID.TID 0000.0001)               ''
(PID.TID 0000.0001)     ;
(PID.TID 0000.0001) PTRACERS_ioLabel = /* tracer IO Label */
(PID.TID 0000.0001)               '62'
(PID.TID 0000.0001)     ;
(PID.TID 0000.0001) PTRACERS_advScheme = /* Advection Scheme */
(PID.TID 0000.0001)                      33
(PID.TID 0000.0001)     ;
(PID.TID 0000.0001) PTRACERS_ImplVertAdv = /* implicit vert. advection flag */
(PID.TID 0000.0001)                   F
(PID.TID 0000.0001)     ;
(PID.TID 0000.0001) PTRACERS_diffKh = /* Laplacian Diffusivity */
(PID.TID 0000.0001)                 0.000000000000000E+00
(PID.TID 0000.0001)     ;
(PID.TID 0000.0001) PTRACERS_diffK4 = /* Biharmonic Diffusivity */
(PID.TID 0000.0001)                 0.000000000000000E+00
(PID.TID 0000.0001)     ;
(PID.TID 0000.0001) PTRACERS_diffKrNr = /* Vertical Diffusivity */
(PID.TID 0000.0001)    35 @  1.000000000000000E-05              /* K =  1: 35 */
(PID.TID 0000.0001)     ;
(PID.TID 0000.0001) PTRACERS_useGMRedi = /* apply GM-Redi */
(PID.TID 0000.0001)                   F
(PID.TID 0000.0001)     ;
(PID.TID 0000.0001) PTRACERS_useDWNSLP = /* apply DOWN-SLOPE Flow */
(PID.TID 0000.0001)                   F
(PID.TID 0000.0001)     ;
(PID.TID 0000.0001) PTRACERS_useKPP = /* apply KPP scheme */
(PID.TID 0000.0001)                   F
(PID.TID 0000.0001)     ;
(PID.TID 0000.0001) PTRACERS_ref = /* Reference vertical profile */
(PID.TID 0000.0001)    35 @  0.000000000000000E+00              /* K =  1: 35 */
(PID.TID 0000.0001)     ;
(PID.TID 0000.0001) PTRACERS_EvPrRn =/* tracer conc. in Evap. & Rain */
(PID.TID 0000.0001)                 1.234567000000000E+05
(PID.TID 0000.0001)     ;
(PID.TID 0000.0001)  -----------------------------------
(PID.TID 0000.0001)  tracer number :   63
(PID.TID 0000.0001) PTRACERS_names = /* Tracer short name */
(PID.TID 0000.0001)               'Phy42'
(PID.TID 0000.0001)     ;
(PID.TID 0000.0001) PTRACERS_long_names = /* Tracer long name */
(PID.TID 0000.0001)               ''
(PID.TID 0000.0001)     ;
(PID.TID 0000.0001) PTRACERS_ioLabel = /* tracer IO Label */
(PID.TID 0000.0001)               '63'
(PID.TID 0000.0001)     ;
(PID.TID 0000.0001) PTRACERS_advScheme = /* Advection Scheme */
(PID.TID 0000.0001)                      33
(PID.TID 0000.0001)     ;
(PID.TID 0000.0001) PTRACERS_ImplVertAdv = /* implicit vert. advection flag */
(PID.TID 0000.0001)                   F
(PID.TID 0000.0001)     ;
(PID.TID 0000.0001) PTRACERS_diffKh = /* Laplacian Diffusivity */
(PID.TID 0000.0001)                 0.000000000000000E+00
(PID.TID 0000.0001)     ;
(PID.TID 0000.0001) PTRACERS_diffK4 = /* Biharmonic Diffusivity */
(PID.TID 0000.0001)                 0.000000000000000E+00
(PID.TID 0000.0001)     ;
(PID.TID 0000.0001) PTRACERS_diffKrNr = /* Vertical Diffusivity */
(PID.TID 0000.0001)    35 @  1.000000000000000E-05              /* K =  1: 35 */
(PID.TID 0000.0001)     ;
(PID.TID 0000.0001) PTRACERS_useGMRedi = /* apply GM-Redi */
(PID.TID 0000.0001)                   F
(PID.TID 0000.0001)     ;
(PID.TID 0000.0001) PTRACERS_useDWNSLP = /* apply DOWN-SLOPE Flow */
(PID.TID 0000.0001)                   F
(PID.TID 0000.0001)     ;
(PID.TID 0000.0001) PTRACERS_useKPP = /* apply KPP scheme */
(PID.TID 0000.0001)                   F
(PID.TID 0000.0001)     ;
(PID.TID 0000.0001) PTRACERS_ref = /* Reference vertical profile */
(PID.TID 0000.0001)    35 @  0.000000000000000E+00              /* K =  1: 35 */
(PID.TID 0000.0001)     ;
(PID.TID 0000.0001) PTRACERS_EvPrRn =/* tracer conc. in Evap. & Rain */
(PID.TID 0000.0001)                 1.234567000000000E+05
(PID.TID 0000.0001)     ;
(PID.TID 0000.0001)  -----------------------------------
(PID.TID 0000.0001)  tracer number :   64
(PID.TID 0000.0001) PTRACERS_names = /* Tracer short name */
(PID.TID 0000.0001)               'Phy43'
(PID.TID 0000.0001)     ;
(PID.TID 0000.0001) PTRACERS_long_names = /* Tracer long name */
(PID.TID 0000.0001)               ''
(PID.TID 0000.0001)     ;
(PID.TID 0000.0001) PTRACERS_ioLabel = /* tracer IO Label */
(PID.TID 0000.0001)               '64'
(PID.TID 0000.0001)     ;
(PID.TID 0000.0001) PTRACERS_advScheme = /* Advection Scheme */
(PID.TID 0000.0001)                      33
(PID.TID 0000.0001)     ;
(PID.TID 0000.0001) PTRACERS_ImplVertAdv = /* implicit vert. advection flag */
(PID.TID 0000.0001)                   F
(PID.TID 0000.0001)     ;
(PID.TID 0000.0001) PTRACERS_diffKh = /* Laplacian Diffusivity */
(PID.TID 0000.0001)                 0.000000000000000E+00
(PID.TID 0000.0001)     ;
(PID.TID 0000.0001) PTRACERS_diffK4 = /* Biharmonic Diffusivity */
(PID.TID 0000.0001)                 0.000000000000000E+00
(PID.TID 0000.0001)     ;
(PID.TID 0000.0001) PTRACERS_diffKrNr = /* Vertical Diffusivity */
(PID.TID 0000.0001)    35 @  1.000000000000000E-05              /* K =  1: 35 */
(PID.TID 0000.0001)     ;
(PID.TID 0000.0001) PTRACERS_useGMRedi = /* apply GM-Redi */
(PID.TID 0000.0001)                   F
(PID.TID 0000.0001)     ;
(PID.TID 0000.0001) PTRACERS_useDWNSLP = /* apply DOWN-SLOPE Flow */
(PID.TID 0000.0001)                   F
(PID.TID 0000.0001)     ;
(PID.TID 0000.0001) PTRACERS_useKPP = /* apply KPP scheme */
(PID.TID 0000.0001)                   F
(PID.TID 0000.0001)     ;
(PID.TID 0000.0001) PTRACERS_ref = /* Reference vertical profile */
(PID.TID 0000.0001)    35 @  0.000000000000000E+00              /* K =  1: 35 */
(PID.TID 0000.0001)     ;
(PID.TID 0000.0001) PTRACERS_EvPrRn =/* tracer conc. in Evap. & Rain */
(PID.TID 0000.0001)                 1.234567000000000E+05
(PID.TID 0000.0001)     ;
(PID.TID 0000.0001)  -----------------------------------
(PID.TID 0000.0001)  tracer number :   65
(PID.TID 0000.0001) PTRACERS_names = /* Tracer short name */
(PID.TID 0000.0001)               'Phy44'
(PID.TID 0000.0001)     ;
(PID.TID 0000.0001) PTRACERS_long_names = /* Tracer long name */
(PID.TID 0000.0001)               ''
(PID.TID 0000.0001)     ;
(PID.TID 0000.0001) PTRACERS_ioLabel = /* tracer IO Label */
(PID.TID 0000.0001)               '65'
(PID.TID 0000.0001)     ;
(PID.TID 0000.0001) PTRACERS_advScheme = /* Advection Scheme */
(PID.TID 0000.0001)                      33
(PID.TID 0000.0001)     ;
(PID.TID 0000.0001) PTRACERS_ImplVertAdv = /* implicit vert. advection flag */
(PID.TID 0000.0001)                   F
(PID.TID 0000.0001)     ;
(PID.TID 0000.0001) PTRACERS_diffKh = /* Laplacian Diffusivity */
(PID.TID 0000.0001)                 0.000000000000000E+00
(PID.TID 0000.0001)     ;
(PID.TID 0000.0001) PTRACERS_diffK4 = /* Biharmonic Diffusivity */
(PID.TID 0000.0001)                 0.000000000000000E+00
(PID.TID 0000.0001)     ;
(PID.TID 0000.0001) PTRACERS_diffKrNr = /* Vertical Diffusivity */
(PID.TID 0000.0001)    35 @  1.000000000000000E-05              /* K =  1: 35 */
(PID.TID 0000.0001)     ;
(PID.TID 0000.0001) PTRACERS_useGMRedi = /* apply GM-Redi */
(PID.TID 0000.0001)                   F
(PID.TID 0000.0001)     ;
(PID.TID 0000.0001) PTRACERS_useDWNSLP = /* apply DOWN-SLOPE Flow */
(PID.TID 0000.0001)                   F
(PID.TID 0000.0001)     ;
(PID.TID 0000.0001) PTRACERS_useKPP = /* apply KPP scheme */
(PID.TID 0000.0001)                   F
(PID.TID 0000.0001)     ;
(PID.TID 0000.0001) PTRACERS_ref = /* Reference vertical profile */
(PID.TID 0000.0001)    35 @  0.000000000000000E+00              /* K =  1: 35 */
(PID.TID 0000.0001)     ;
(PID.TID 0000.0001) PTRACERS_EvPrRn =/* tracer conc. in Evap. & Rain */
(PID.TID 0000.0001)                 1.234567000000000E+05
(PID.TID 0000.0001)     ;
(PID.TID 0000.0001)  -----------------------------------
(PID.TID 0000.0001)  tracer number :   66
(PID.TID 0000.0001) PTRACERS_names = /* Tracer short name */
(PID.TID 0000.0001)               'Phy45'
(PID.TID 0000.0001)     ;
(PID.TID 0000.0001) PTRACERS_long_names = /* Tracer long name */
(PID.TID 0000.0001)               ''
(PID.TID 0000.0001)     ;
(PID.TID 0000.0001) PTRACERS_ioLabel = /* tracer IO Label */
(PID.TID 0000.0001)               '66'
(PID.TID 0000.0001)     ;
(PID.TID 0000.0001) PTRACERS_advScheme = /* Advection Scheme */
(PID.TID 0000.0001)                      33
(PID.TID 0000.0001)     ;
(PID.TID 0000.0001) PTRACERS_ImplVertAdv = /* implicit vert. advection flag */
(PID.TID 0000.0001)                   F
(PID.TID 0000.0001)     ;
(PID.TID 0000.0001) PTRACERS_diffKh = /* Laplacian Diffusivity */
(PID.TID 0000.0001)                 0.000000000000000E+00
(PID.TID 0000.0001)     ;
(PID.TID 0000.0001) PTRACERS_diffK4 = /* Biharmonic Diffusivity */
(PID.TID 0000.0001)                 0.000000000000000E+00
(PID.TID 0000.0001)     ;
(PID.TID 0000.0001) PTRACERS_diffKrNr = /* Vertical Diffusivity */
(PID.TID 0000.0001)    35 @  1.000000000000000E-05              /* K =  1: 35 */
(PID.TID 0000.0001)     ;
(PID.TID 0000.0001) PTRACERS_useGMRedi = /* apply GM-Redi */
(PID.TID 0000.0001)                   F
(PID.TID 0000.0001)     ;
(PID.TID 0000.0001) PTRACERS_useDWNSLP = /* apply DOWN-SLOPE Flow */
(PID.TID 0000.0001)                   F
(PID.TID 0000.0001)     ;
(PID.TID 0000.0001) PTRACERS_useKPP = /* apply KPP scheme */
(PID.TID 0000.0001)                   F
(PID.TID 0000.0001)     ;
(PID.TID 0000.0001) PTRACERS_ref = /* Reference vertical profile */
(PID.TID 0000.0001)    35 @  0.000000000000000E+00              /* K =  1: 35 */
(PID.TID 0000.0001)     ;
(PID.TID 0000.0001) PTRACERS_EvPrRn =/* tracer conc. in Evap. & Rain */
(PID.TID 0000.0001)                 1.234567000000000E+05
(PID.TID 0000.0001)     ;
(PID.TID 0000.0001)  -----------------------------------
(PID.TID 0000.0001)  tracer number :   67
(PID.TID 0000.0001) PTRACERS_names = /* Tracer short name */
(PID.TID 0000.0001)               'Phy46'
(PID.TID 0000.0001)     ;
(PID.TID 0000.0001) PTRACERS_long_names = /* Tracer long name */
(PID.TID 0000.0001)               ''
(PID.TID 0000.0001)     ;
(PID.TID 0000.0001) PTRACERS_ioLabel = /* tracer IO Label */
(PID.TID 0000.0001)               '67'
(PID.TID 0000.0001)     ;
(PID.TID 0000.0001) PTRACERS_advScheme = /* Advection Scheme */
(PID.TID 0000.0001)                      33
(PID.TID 0000.0001)     ;
(PID.TID 0000.0001) PTRACERS_ImplVertAdv = /* implicit vert. advection flag */
(PID.TID 0000.0001)                   F
(PID.TID 0000.0001)     ;
(PID.TID 0000.0001) PTRACERS_diffKh = /* Laplacian Diffusivity */
(PID.TID 0000.0001)                 0.000000000000000E+00
(PID.TID 0000.0001)     ;
(PID.TID 0000.0001) PTRACERS_diffK4 = /* Biharmonic Diffusivity */
(PID.TID 0000.0001)                 0.000000000000000E+00
(PID.TID 0000.0001)     ;
(PID.TID 0000.0001) PTRACERS_diffKrNr = /* Vertical Diffusivity */
(PID.TID 0000.0001)    35 @  1.000000000000000E-05              /* K =  1: 35 */
(PID.TID 0000.0001)     ;
(PID.TID 0000.0001) PTRACERS_useGMRedi = /* apply GM-Redi */
(PID.TID 0000.0001)                   F
(PID.TID 0000.0001)     ;
(PID.TID 0000.0001) PTRACERS_useDWNSLP = /* apply DOWN-SLOPE Flow */
(PID.TID 0000.0001)                   F
(PID.TID 0000.0001)     ;
(PID.TID 0000.0001) PTRACERS_useKPP = /* apply KPP scheme */
(PID.TID 0000.0001)                   F
(PID.TID 0000.0001)     ;
(PID.TID 0000.0001) PTRACERS_ref = /* Reference vertical profile */
(PID.TID 0000.0001)    35 @  0.000000000000000E+00              /* K =  1: 35 */
(PID.TID 0000.0001)     ;
(PID.TID 0000.0001) PTRACERS_EvPrRn =/* tracer conc. in Evap. & Rain */
(PID.TID 0000.0001)                 1.234567000000000E+05
(PID.TID 0000.0001)     ;
(PID.TID 0000.0001)  -----------------------------------
(PID.TID 0000.0001)  tracer number :   68
(PID.TID 0000.0001) PTRACERS_names = /* Tracer short name */
(PID.TID 0000.0001)               'Phy47'
(PID.TID 0000.0001)     ;
(PID.TID 0000.0001) PTRACERS_long_names = /* Tracer long name */
(PID.TID 0000.0001)               ''
(PID.TID 0000.0001)     ;
(PID.TID 0000.0001) PTRACERS_ioLabel = /* tracer IO Label */
(PID.TID 0000.0001)               '68'
(PID.TID 0000.0001)     ;
(PID.TID 0000.0001) PTRACERS_advScheme = /* Advection Scheme */
(PID.TID 0000.0001)                      33
(PID.TID 0000.0001)     ;
(PID.TID 0000.0001) PTRACERS_ImplVertAdv = /* implicit vert. advection flag */
(PID.TID 0000.0001)                   F
(PID.TID 0000.0001)     ;
(PID.TID 0000.0001) PTRACERS_diffKh = /* Laplacian Diffusivity */
(PID.TID 0000.0001)                 0.000000000000000E+00
(PID.TID 0000.0001)     ;
(PID.TID 0000.0001) PTRACERS_diffK4 = /* Biharmonic Diffusivity */
(PID.TID 0000.0001)                 0.000000000000000E+00
(PID.TID 0000.0001)     ;
(PID.TID 0000.0001) PTRACERS_diffKrNr = /* Vertical Diffusivity */
(PID.TID 0000.0001)    35 @  1.000000000000000E-05              /* K =  1: 35 */
(PID.TID 0000.0001)     ;
(PID.TID 0000.0001) PTRACERS_useGMRedi = /* apply GM-Redi */
(PID.TID 0000.0001)                   F
(PID.TID 0000.0001)     ;
(PID.TID 0000.0001) PTRACERS_useDWNSLP = /* apply DOWN-SLOPE Flow */
(PID.TID 0000.0001)                   F
(PID.TID 0000.0001)     ;
(PID.TID 0000.0001) PTRACERS_useKPP = /* apply KPP scheme */
(PID.TID 0000.0001)                   F
(PID.TID 0000.0001)     ;
(PID.TID 0000.0001) PTRACERS_ref = /* Reference vertical profile */
(PID.TID 0000.0001)    35 @  0.000000000000000E+00              /* K =  1: 35 */
(PID.TID 0000.0001)     ;
(PID.TID 0000.0001) PTRACERS_EvPrRn =/* tracer conc. in Evap. & Rain */
(PID.TID 0000.0001)                 1.234567000000000E+05
(PID.TID 0000.0001)     ;
(PID.TID 0000.0001)  -----------------------------------
(PID.TID 0000.0001)  tracer number :   69
(PID.TID 0000.0001) PTRACERS_names = /* Tracer short name */
(PID.TID 0000.0001)               'Phy48'
(PID.TID 0000.0001)     ;
(PID.TID 0000.0001) PTRACERS_long_names = /* Tracer long name */
(PID.TID 0000.0001)               ''
(PID.TID 0000.0001)     ;
(PID.TID 0000.0001) PTRACERS_ioLabel = /* tracer IO Label */
(PID.TID 0000.0001)               '69'
(PID.TID 0000.0001)     ;
(PID.TID 0000.0001) PTRACERS_advScheme = /* Advection Scheme */
(PID.TID 0000.0001)                      33
(PID.TID 0000.0001)     ;
(PID.TID 0000.0001) PTRACERS_ImplVertAdv = /* implicit vert. advection flag */
(PID.TID 0000.0001)                   F
(PID.TID 0000.0001)     ;
(PID.TID 0000.0001) PTRACERS_diffKh = /* Laplacian Diffusivity */
(PID.TID 0000.0001)                 0.000000000000000E+00
(PID.TID 0000.0001)     ;
(PID.TID 0000.0001) PTRACERS_diffK4 = /* Biharmonic Diffusivity */
(PID.TID 0000.0001)                 0.000000000000000E+00
(PID.TID 0000.0001)     ;
(PID.TID 0000.0001) PTRACERS_diffKrNr = /* Vertical Diffusivity */
(PID.TID 0000.0001)    35 @  1.000000000000000E-05              /* K =  1: 35 */
(PID.TID 0000.0001)     ;
(PID.TID 0000.0001) PTRACERS_useGMRedi = /* apply GM-Redi */
(PID.TID 0000.0001)                   F
(PID.TID 0000.0001)     ;
(PID.TID 0000.0001) PTRACERS_useDWNSLP = /* apply DOWN-SLOPE Flow */
(PID.TID 0000.0001)                   F
(PID.TID 0000.0001)     ;
(PID.TID 0000.0001) PTRACERS_useKPP = /* apply KPP scheme */
(PID.TID 0000.0001)                   F
(PID.TID 0000.0001)     ;
(PID.TID 0000.0001) PTRACERS_ref = /* Reference vertical profile */
(PID.TID 0000.0001)    35 @  0.000000000000000E+00              /* K =  1: 35 */
(PID.TID 0000.0001)     ;
(PID.TID 0000.0001) PTRACERS_EvPrRn =/* tracer conc. in Evap. & Rain */
(PID.TID 0000.0001)                 1.234567000000000E+05
(PID.TID 0000.0001)     ;
(PID.TID 0000.0001)  -----------------------------------
(PID.TID 0000.0001)  tracer number :   70
(PID.TID 0000.0001) PTRACERS_names = /* Tracer short name */
(PID.TID 0000.0001)               'Phy49'
(PID.TID 0000.0001)     ;
(PID.TID 0000.0001) PTRACERS_long_names = /* Tracer long name */
(PID.TID 0000.0001)               ''
(PID.TID 0000.0001)     ;
(PID.TID 0000.0001) PTRACERS_ioLabel = /* tracer IO Label */
(PID.TID 0000.0001)               '70'
(PID.TID 0000.0001)     ;
(PID.TID 0000.0001) PTRACERS_advScheme = /* Advection Scheme */
(PID.TID 0000.0001)                      33
(PID.TID 0000.0001)     ;
(PID.TID 0000.0001) PTRACERS_ImplVertAdv = /* implicit vert. advection flag */
(PID.TID 0000.0001)                   F
(PID.TID 0000.0001)     ;
(PID.TID 0000.0001) PTRACERS_diffKh = /* Laplacian Diffusivity */
(PID.TID 0000.0001)                 0.000000000000000E+00
(PID.TID 0000.0001)     ;
(PID.TID 0000.0001) PTRACERS_diffK4 = /* Biharmonic Diffusivity */
(PID.TID 0000.0001)                 0.000000000000000E+00
(PID.TID 0000.0001)     ;
(PID.TID 0000.0001) PTRACERS_diffKrNr = /* Vertical Diffusivity */
(PID.TID 0000.0001)    35 @  1.000000000000000E-05              /* K =  1: 35 */
(PID.TID 0000.0001)     ;
(PID.TID 0000.0001) PTRACERS_useGMRedi = /* apply GM-Redi */
(PID.TID 0000.0001)                   F
(PID.TID 0000.0001)     ;
(PID.TID 0000.0001) PTRACERS_useDWNSLP = /* apply DOWN-SLOPE Flow */
(PID.TID 0000.0001)                   F
(PID.TID 0000.0001)     ;
(PID.TID 0000.0001) PTRACERS_useKPP = /* apply KPP scheme */
(PID.TID 0000.0001)                   F
(PID.TID 0000.0001)     ;
(PID.TID 0000.0001) PTRACERS_ref = /* Reference vertical profile */
(PID.TID 0000.0001)    35 @  0.000000000000000E+00              /* K =  1: 35 */
(PID.TID 0000.0001)     ;
(PID.TID 0000.0001) PTRACERS_EvPrRn =/* tracer conc. in Evap. & Rain */
(PID.TID 0000.0001)                 1.234567000000000E+05
(PID.TID 0000.0001)     ;
(PID.TID 0000.0001)  -----------------------------------
(PID.TID 0000.0001)  tracer number :   71
(PID.TID 0000.0001) PTRACERS_names = /* Tracer short name */
(PID.TID 0000.0001)               'Phy50'
(PID.TID 0000.0001)     ;
(PID.TID 0000.0001) PTRACERS_long_names = /* Tracer long name */
(PID.TID 0000.0001)               ''
(PID.TID 0000.0001)     ;
(PID.TID 0000.0001) PTRACERS_ioLabel = /* tracer IO Label */
(PID.TID 0000.0001)               '71'
(PID.TID 0000.0001)     ;
(PID.TID 0000.0001) PTRACERS_advScheme = /* Advection Scheme */
(PID.TID 0000.0001)                      33
(PID.TID 0000.0001)     ;
(PID.TID 0000.0001) PTRACERS_ImplVertAdv = /* implicit vert. advection flag */
(PID.TID 0000.0001)                   F
(PID.TID 0000.0001)     ;
(PID.TID 0000.0001) PTRACERS_diffKh = /* Laplacian Diffusivity */
(PID.TID 0000.0001)                 0.000000000000000E+00
(PID.TID 0000.0001)     ;
(PID.TID 0000.0001) PTRACERS_diffK4 = /* Biharmonic Diffusivity */
(PID.TID 0000.0001)                 0.000000000000000E+00
(PID.TID 0000.0001)     ;
(PID.TID 0000.0001) PTRACERS_diffKrNr = /* Vertical Diffusivity */
(PID.TID 0000.0001)    35 @  1.000000000000000E-05              /* K =  1: 35 */
(PID.TID 0000.0001)     ;
(PID.TID 0000.0001) PTRACERS_useGMRedi = /* apply GM-Redi */
(PID.TID 0000.0001)                   F
(PID.TID 0000.0001)     ;
(PID.TID 0000.0001) PTRACERS_useDWNSLP = /* apply DOWN-SLOPE Flow */
(PID.TID 0000.0001)                   F
(PID.TID 0000.0001)     ;
(PID.TID 0000.0001) PTRACERS_useKPP = /* apply KPP scheme */
(PID.TID 0000.0001)                   F
(PID.TID 0000.0001)     ;
(PID.TID 0000.0001) PTRACERS_ref = /* Reference vertical profile */
(PID.TID 0000.0001)    35 @  0.000000000000000E+00              /* K =  1: 35 */
(PID.TID 0000.0001)     ;
(PID.TID 0000.0001) PTRACERS_EvPrRn =/* tracer conc. in Evap. & Rain */
(PID.TID 0000.0001)                 1.234567000000000E+05
(PID.TID 0000.0001)     ;
(PID.TID 0000.0001)  -----------------------------------
(PID.TID 0000.0001)  tracer number :   72
(PID.TID 0000.0001) PTRACERS_names = /* Tracer short name */
(PID.TID 0000.0001)               'Phy51'
(PID.TID 0000.0001)     ;
(PID.TID 0000.0001) PTRACERS_long_names = /* Tracer long name */
(PID.TID 0000.0001)               ''
(PID.TID 0000.0001)     ;
(PID.TID 0000.0001) PTRACERS_ioLabel = /* tracer IO Label */
(PID.TID 0000.0001)               '72'
(PID.TID 0000.0001)     ;
(PID.TID 0000.0001) PTRACERS_advScheme = /* Advection Scheme */
(PID.TID 0000.0001)                      33
(PID.TID 0000.0001)     ;
(PID.TID 0000.0001) PTRACERS_ImplVertAdv = /* implicit vert. advection flag */
(PID.TID 0000.0001)                   F
(PID.TID 0000.0001)     ;
(PID.TID 0000.0001) PTRACERS_diffKh = /* Laplacian Diffusivity */
(PID.TID 0000.0001)                 0.000000000000000E+00
(PID.TID 0000.0001)     ;
(PID.TID 0000.0001) PTRACERS_diffK4 = /* Biharmonic Diffusivity */
(PID.TID 0000.0001)                 0.000000000000000E+00
(PID.TID 0000.0001)     ;
(PID.TID 0000.0001) PTRACERS_diffKrNr = /* Vertical Diffusivity */
(PID.TID 0000.0001)    35 @  1.000000000000000E-05              /* K =  1: 35 */
(PID.TID 0000.0001)     ;
(PID.TID 0000.0001) PTRACERS_useGMRedi = /* apply GM-Redi */
(PID.TID 0000.0001)                   F
(PID.TID 0000.0001)     ;
(PID.TID 0000.0001) PTRACERS_useDWNSLP = /* apply DOWN-SLOPE Flow */
(PID.TID 0000.0001)                   F
(PID.TID 0000.0001)     ;
(PID.TID 0000.0001) PTRACERS_useKPP = /* apply KPP scheme */
(PID.TID 0000.0001)                   F
(PID.TID 0000.0001)     ;
(PID.TID 0000.0001) PTRACERS_ref = /* Reference vertical profile */
(PID.TID 0000.0001)    35 @  0.000000000000000E+00              /* K =  1: 35 */
(PID.TID 0000.0001)     ;
(PID.TID 0000.0001) PTRACERS_EvPrRn =/* tracer conc. in Evap. & Rain */
(PID.TID 0000.0001)                 1.234567000000000E+05
(PID.TID 0000.0001)     ;
(PID.TID 0000.0001)  -----------------------------------
(PID.TID 0000.0001)  tracer number :   73
(PID.TID 0000.0001) PTRACERS_names = /* Tracer short name */
(PID.TID 0000.0001)               'Phy52'
(PID.TID 0000.0001)     ;
(PID.TID 0000.0001) PTRACERS_long_names = /* Tracer long name */
(PID.TID 0000.0001)               ''
(PID.TID 0000.0001)     ;
(PID.TID 0000.0001) PTRACERS_ioLabel = /* tracer IO Label */
(PID.TID 0000.0001)               '73'
(PID.TID 0000.0001)     ;
(PID.TID 0000.0001) PTRACERS_advScheme = /* Advection Scheme */
(PID.TID 0000.0001)                      33
(PID.TID 0000.0001)     ;
(PID.TID 0000.0001) PTRACERS_ImplVertAdv = /* implicit vert. advection flag */
(PID.TID 0000.0001)                   F
(PID.TID 0000.0001)     ;
(PID.TID 0000.0001) PTRACERS_diffKh = /* Laplacian Diffusivity */
(PID.TID 0000.0001)                 0.000000000000000E+00
(PID.TID 0000.0001)     ;
(PID.TID 0000.0001) PTRACERS_diffK4 = /* Biharmonic Diffusivity */
(PID.TID 0000.0001)                 0.000000000000000E+00
(PID.TID 0000.0001)     ;
(PID.TID 0000.0001) PTRACERS_diffKrNr = /* Vertical Diffusivity */
(PID.TID 0000.0001)    35 @  1.000000000000000E-05              /* K =  1: 35 */
(PID.TID 0000.0001)     ;
(PID.TID 0000.0001) PTRACERS_useGMRedi = /* apply GM-Redi */
(PID.TID 0000.0001)                   F
(PID.TID 0000.0001)     ;
(PID.TID 0000.0001) PTRACERS_useDWNSLP = /* apply DOWN-SLOPE Flow */
(PID.TID 0000.0001)                   F
(PID.TID 0000.0001)     ;
(PID.TID 0000.0001) PTRACERS_useKPP = /* apply KPP scheme */
(PID.TID 0000.0001)                   F
(PID.TID 0000.0001)     ;
(PID.TID 0000.0001) PTRACERS_ref = /* Reference vertical profile */
(PID.TID 0000.0001)    35 @  0.000000000000000E+00              /* K =  1: 35 */
(PID.TID 0000.0001)     ;
(PID.TID 0000.0001) PTRACERS_EvPrRn =/* tracer conc. in Evap. & Rain */
(PID.TID 0000.0001)                 1.234567000000000E+05
(PID.TID 0000.0001)     ;
(PID.TID 0000.0001)  -----------------------------------
(PID.TID 0000.0001)  tracer number :   74
(PID.TID 0000.0001) PTRACERS_names = /* Tracer short name */
(PID.TID 0000.0001)               'Phy53'
(PID.TID 0000.0001)     ;
(PID.TID 0000.0001) PTRACERS_long_names = /* Tracer long name */
(PID.TID 0000.0001)               ''
(PID.TID 0000.0001)     ;
(PID.TID 0000.0001) PTRACERS_ioLabel = /* tracer IO Label */
(PID.TID 0000.0001)               '74'
(PID.TID 0000.0001)     ;
(PID.TID 0000.0001) PTRACERS_advScheme = /* Advection Scheme */
(PID.TID 0000.0001)                      33
(PID.TID 0000.0001)     ;
(PID.TID 0000.0001) PTRACERS_ImplVertAdv = /* implicit vert. advection flag */
(PID.TID 0000.0001)                   F
(PID.TID 0000.0001)     ;
(PID.TID 0000.0001) PTRACERS_diffKh = /* Laplacian Diffusivity */
(PID.TID 0000.0001)                 0.000000000000000E+00
(PID.TID 0000.0001)     ;
(PID.TID 0000.0001) PTRACERS_diffK4 = /* Biharmonic Diffusivity */
(PID.TID 0000.0001)                 0.000000000000000E+00
(PID.TID 0000.0001)     ;
(PID.TID 0000.0001) PTRACERS_diffKrNr = /* Vertical Diffusivity */
(PID.TID 0000.0001)    35 @  1.000000000000000E-05              /* K =  1: 35 */
(PID.TID 0000.0001)     ;
(PID.TID 0000.0001) PTRACERS_useGMRedi = /* apply GM-Redi */
(PID.TID 0000.0001)                   F
(PID.TID 0000.0001)     ;
(PID.TID 0000.0001) PTRACERS_useDWNSLP = /* apply DOWN-SLOPE Flow */
(PID.TID 0000.0001)                   F
(PID.TID 0000.0001)     ;
(PID.TID 0000.0001) PTRACERS_useKPP = /* apply KPP scheme */
(PID.TID 0000.0001)                   F
(PID.TID 0000.0001)     ;
(PID.TID 0000.0001) PTRACERS_ref = /* Reference vertical profile */
(PID.TID 0000.0001)    35 @  0.000000000000000E+00              /* K =  1: 35 */
(PID.TID 0000.0001)     ;
(PID.TID 0000.0001) PTRACERS_EvPrRn =/* tracer conc. in Evap. & Rain */
(PID.TID 0000.0001)                 1.234567000000000E+05
(PID.TID 0000.0001)     ;
(PID.TID 0000.0001)  -----------------------------------
(PID.TID 0000.0001)  tracer number :   75
(PID.TID 0000.0001) PTRACERS_names = /* Tracer short name */
(PID.TID 0000.0001)               'Phy54'
(PID.TID 0000.0001)     ;
(PID.TID 0000.0001) PTRACERS_long_names = /* Tracer long name */
(PID.TID 0000.0001)               ''
(PID.TID 0000.0001)     ;
(PID.TID 0000.0001) PTRACERS_ioLabel = /* tracer IO Label */
(PID.TID 0000.0001)               '75'
(PID.TID 0000.0001)     ;
(PID.TID 0000.0001) PTRACERS_advScheme = /* Advection Scheme */
(PID.TID 0000.0001)                      33
(PID.TID 0000.0001)     ;
(PID.TID 0000.0001) PTRACERS_ImplVertAdv = /* implicit vert. advection flag */
(PID.TID 0000.0001)                   F
(PID.TID 0000.0001)     ;
(PID.TID 0000.0001) PTRACERS_diffKh = /* Laplacian Diffusivity */
(PID.TID 0000.0001)                 0.000000000000000E+00
(PID.TID 0000.0001)     ;
(PID.TID 0000.0001) PTRACERS_diffK4 = /* Biharmonic Diffusivity */
(PID.TID 0000.0001)                 0.000000000000000E+00
(PID.TID 0000.0001)     ;
(PID.TID 0000.0001) PTRACERS_diffKrNr = /* Vertical Diffusivity */
(PID.TID 0000.0001)    35 @  1.000000000000000E-05              /* K =  1: 35 */
(PID.TID 0000.0001)     ;
(PID.TID 0000.0001) PTRACERS_useGMRedi = /* apply GM-Redi */
(PID.TID 0000.0001)                   F
(PID.TID 0000.0001)     ;
(PID.TID 0000.0001) PTRACERS_useDWNSLP = /* apply DOWN-SLOPE Flow */
(PID.TID 0000.0001)                   F
(PID.TID 0000.0001)     ;
(PID.TID 0000.0001) PTRACERS_useKPP = /* apply KPP scheme */
(PID.TID 0000.0001)                   F
(PID.TID 0000.0001)     ;
(PID.TID 0000.0001) PTRACERS_ref = /* Reference vertical profile */
(PID.TID 0000.0001)    35 @  0.000000000000000E+00              /* K =  1: 35 */
(PID.TID 0000.0001)     ;
(PID.TID 0000.0001) PTRACERS_EvPrRn =/* tracer conc. in Evap. & Rain */
(PID.TID 0000.0001)                 1.234567000000000E+05
(PID.TID 0000.0001)     ;
(PID.TID 0000.0001)  -----------------------------------
(PID.TID 0000.0001)  tracer number :   76
(PID.TID 0000.0001) PTRACERS_names = /* Tracer short name */
(PID.TID 0000.0001)               'Phy55'
(PID.TID 0000.0001)     ;
(PID.TID 0000.0001) PTRACERS_long_names = /* Tracer long name */
(PID.TID 0000.0001)               ''
(PID.TID 0000.0001)     ;
(PID.TID 0000.0001) PTRACERS_ioLabel = /* tracer IO Label */
(PID.TID 0000.0001)               '76'
(PID.TID 0000.0001)     ;
(PID.TID 0000.0001) PTRACERS_advScheme = /* Advection Scheme */
(PID.TID 0000.0001)                      33
(PID.TID 0000.0001)     ;
(PID.TID 0000.0001) PTRACERS_ImplVertAdv = /* implicit vert. advection flag */
(PID.TID 0000.0001)                   F
(PID.TID 0000.0001)     ;
(PID.TID 0000.0001) PTRACERS_diffKh = /* Laplacian Diffusivity */
(PID.TID 0000.0001)                 0.000000000000000E+00
(PID.TID 0000.0001)     ;
(PID.TID 0000.0001) PTRACERS_diffK4 = /* Biharmonic Diffusivity */
(PID.TID 0000.0001)                 0.000000000000000E+00
(PID.TID 0000.0001)     ;
(PID.TID 0000.0001) PTRACERS_diffKrNr = /* Vertical Diffusivity */
(PID.TID 0000.0001)    35 @  1.000000000000000E-05              /* K =  1: 35 */
(PID.TID 0000.0001)     ;
(PID.TID 0000.0001) PTRACERS_useGMRedi = /* apply GM-Redi */
(PID.TID 0000.0001)                   F
(PID.TID 0000.0001)     ;
(PID.TID 0000.0001) PTRACERS_useDWNSLP = /* apply DOWN-SLOPE Flow */
(PID.TID 0000.0001)                   F
(PID.TID 0000.0001)     ;
(PID.TID 0000.0001) PTRACERS_useKPP = /* apply KPP scheme */
(PID.TID 0000.0001)                   F
(PID.TID 0000.0001)     ;
(PID.TID 0000.0001) PTRACERS_ref = /* Reference vertical profile */
(PID.TID 0000.0001)    35 @  0.000000000000000E+00              /* K =  1: 35 */
(PID.TID 0000.0001)     ;
(PID.TID 0000.0001) PTRACERS_EvPrRn =/* tracer conc. in Evap. & Rain */
(PID.TID 0000.0001)                 1.234567000000000E+05
(PID.TID 0000.0001)     ;
(PID.TID 0000.0001)  -----------------------------------
(PID.TID 0000.0001)  tracer number :   77
(PID.TID 0000.0001) PTRACERS_names = /* Tracer short name */
(PID.TID 0000.0001)               'Phy56'
(PID.TID 0000.0001)     ;
(PID.TID 0000.0001) PTRACERS_long_names = /* Tracer long name */
(PID.TID 0000.0001)               ''
(PID.TID 0000.0001)     ;
(PID.TID 0000.0001) PTRACERS_ioLabel = /* tracer IO Label */
(PID.TID 0000.0001)               '77'
(PID.TID 0000.0001)     ;
(PID.TID 0000.0001) PTRACERS_advScheme = /* Advection Scheme */
(PID.TID 0000.0001)                      33
(PID.TID 0000.0001)     ;
(PID.TID 0000.0001) PTRACERS_ImplVertAdv = /* implicit vert. advection flag */
(PID.TID 0000.0001)                   F
(PID.TID 0000.0001)     ;
(PID.TID 0000.0001) PTRACERS_diffKh = /* Laplacian Diffusivity */
(PID.TID 0000.0001)                 0.000000000000000E+00
(PID.TID 0000.0001)     ;
(PID.TID 0000.0001) PTRACERS_diffK4 = /* Biharmonic Diffusivity */
(PID.TID 0000.0001)                 0.000000000000000E+00
(PID.TID 0000.0001)     ;
(PID.TID 0000.0001) PTRACERS_diffKrNr = /* Vertical Diffusivity */
(PID.TID 0000.0001)    35 @  1.000000000000000E-05              /* K =  1: 35 */
(PID.TID 0000.0001)     ;
(PID.TID 0000.0001) PTRACERS_useGMRedi = /* apply GM-Redi */
(PID.TID 0000.0001)                   F
(PID.TID 0000.0001)     ;
(PID.TID 0000.0001) PTRACERS_useDWNSLP = /* apply DOWN-SLOPE Flow */
(PID.TID 0000.0001)                   F
(PID.TID 0000.0001)     ;
(PID.TID 0000.0001) PTRACERS_useKPP = /* apply KPP scheme */
(PID.TID 0000.0001)                   F
(PID.TID 0000.0001)     ;
(PID.TID 0000.0001) PTRACERS_ref = /* Reference vertical profile */
(PID.TID 0000.0001)    35 @  0.000000000000000E+00              /* K =  1: 35 */
(PID.TID 0000.0001)     ;
(PID.TID 0000.0001) PTRACERS_EvPrRn =/* tracer conc. in Evap. & Rain */
(PID.TID 0000.0001)                 1.234567000000000E+05
(PID.TID 0000.0001)     ;
(PID.TID 0000.0001)  -----------------------------------
(PID.TID 0000.0001)  tracer number :   78
(PID.TID 0000.0001) PTRACERS_names = /* Tracer short name */
(PID.TID 0000.0001)               'Phy57'
(PID.TID 0000.0001)     ;
(PID.TID 0000.0001) PTRACERS_long_names = /* Tracer long name */
(PID.TID 0000.0001)               ''
(PID.TID 0000.0001)     ;
(PID.TID 0000.0001) PTRACERS_ioLabel = /* tracer IO Label */
(PID.TID 0000.0001)               '78'
(PID.TID 0000.0001)     ;
(PID.TID 0000.0001) PTRACERS_advScheme = /* Advection Scheme */
(PID.TID 0000.0001)                      33
(PID.TID 0000.0001)     ;
(PID.TID 0000.0001) PTRACERS_ImplVertAdv = /* implicit vert. advection flag */
(PID.TID 0000.0001)                   F
(PID.TID 0000.0001)     ;
(PID.TID 0000.0001) PTRACERS_diffKh = /* Laplacian Diffusivity */
(PID.TID 0000.0001)                 0.000000000000000E+00
(PID.TID 0000.0001)     ;
(PID.TID 0000.0001) PTRACERS_diffK4 = /* Biharmonic Diffusivity */
(PID.TID 0000.0001)                 0.000000000000000E+00
(PID.TID 0000.0001)     ;
(PID.TID 0000.0001) PTRACERS_diffKrNr = /* Vertical Diffusivity */
(PID.TID 0000.0001)    35 @  1.000000000000000E-05              /* K =  1: 35 */
(PID.TID 0000.0001)     ;
(PID.TID 0000.0001) PTRACERS_useGMRedi = /* apply GM-Redi */
(PID.TID 0000.0001)                   F
(PID.TID 0000.0001)     ;
(PID.TID 0000.0001) PTRACERS_useDWNSLP = /* apply DOWN-SLOPE Flow */
(PID.TID 0000.0001)                   F
(PID.TID 0000.0001)     ;
(PID.TID 0000.0001) PTRACERS_useKPP = /* apply KPP scheme */
(PID.TID 0000.0001)                   F
(PID.TID 0000.0001)     ;
(PID.TID 0000.0001) PTRACERS_ref = /* Reference vertical profile */
(PID.TID 0000.0001)    35 @  0.000000000000000E+00              /* K =  1: 35 */
(PID.TID 0000.0001)     ;
(PID.TID 0000.0001) PTRACERS_EvPrRn =/* tracer conc. in Evap. & Rain */
(PID.TID 0000.0001)                 1.234567000000000E+05
(PID.TID 0000.0001)     ;
(PID.TID 0000.0001)  -----------------------------------
(PID.TID 0000.0001)  tracer number :   79
(PID.TID 0000.0001) PTRACERS_names = /* Tracer short name */
(PID.TID 0000.0001)               'Phy58'
(PID.TID 0000.0001)     ;
(PID.TID 0000.0001) PTRACERS_long_names = /* Tracer long name */
(PID.TID 0000.0001)               ''
(PID.TID 0000.0001)     ;
(PID.TID 0000.0001) PTRACERS_ioLabel = /* tracer IO Label */
(PID.TID 0000.0001)               '79'
(PID.TID 0000.0001)     ;
(PID.TID 0000.0001) PTRACERS_advScheme = /* Advection Scheme */
(PID.TID 0000.0001)                      33
(PID.TID 0000.0001)     ;
(PID.TID 0000.0001) PTRACERS_ImplVertAdv = /* implicit vert. advection flag */
(PID.TID 0000.0001)                   F
(PID.TID 0000.0001)     ;
(PID.TID 0000.0001) PTRACERS_diffKh = /* Laplacian Diffusivity */
(PID.TID 0000.0001)                 0.000000000000000E+00
(PID.TID 0000.0001)     ;
(PID.TID 0000.0001) PTRACERS_diffK4 = /* Biharmonic Diffusivity */
(PID.TID 0000.0001)                 0.000000000000000E+00
(PID.TID 0000.0001)     ;
(PID.TID 0000.0001) PTRACERS_diffKrNr = /* Vertical Diffusivity */
(PID.TID 0000.0001)    35 @  1.000000000000000E-05              /* K =  1: 35 */
(PID.TID 0000.0001)     ;
(PID.TID 0000.0001) PTRACERS_useGMRedi = /* apply GM-Redi */
(PID.TID 0000.0001)                   F
(PID.TID 0000.0001)     ;
(PID.TID 0000.0001) PTRACERS_useDWNSLP = /* apply DOWN-SLOPE Flow */
(PID.TID 0000.0001)                   F
(PID.TID 0000.0001)     ;
(PID.TID 0000.0001) PTRACERS_useKPP = /* apply KPP scheme */
(PID.TID 0000.0001)                   F
(PID.TID 0000.0001)     ;
(PID.TID 0000.0001) PTRACERS_ref = /* Reference vertical profile */
(PID.TID 0000.0001)    35 @  0.000000000000000E+00              /* K =  1: 35 */
(PID.TID 0000.0001)     ;
(PID.TID 0000.0001) PTRACERS_EvPrRn =/* tracer conc. in Evap. & Rain */
(PID.TID 0000.0001)                 1.234567000000000E+05
(PID.TID 0000.0001)     ;
(PID.TID 0000.0001)  -----------------------------------
(PID.TID 0000.0001)  tracer number :   80
(PID.TID 0000.0001) PTRACERS_names = /* Tracer short name */
(PID.TID 0000.0001)               'Phy59'
(PID.TID 0000.0001)     ;
(PID.TID 0000.0001) PTRACERS_long_names = /* Tracer long name */
(PID.TID 0000.0001)               ''
(PID.TID 0000.0001)     ;
(PID.TID 0000.0001) PTRACERS_ioLabel = /* tracer IO Label */
(PID.TID 0000.0001)               '80'
(PID.TID 0000.0001)     ;
(PID.TID 0000.0001) PTRACERS_advScheme = /* Advection Scheme */
(PID.TID 0000.0001)                      33
(PID.TID 0000.0001)     ;
(PID.TID 0000.0001) PTRACERS_ImplVertAdv = /* implicit vert. advection flag */
(PID.TID 0000.0001)                   F
(PID.TID 0000.0001)     ;
(PID.TID 0000.0001) PTRACERS_diffKh = /* Laplacian Diffusivity */
(PID.TID 0000.0001)                 0.000000000000000E+00
(PID.TID 0000.0001)     ;
(PID.TID 0000.0001) PTRACERS_diffK4 = /* Biharmonic Diffusivity */
(PID.TID 0000.0001)                 0.000000000000000E+00
(PID.TID 0000.0001)     ;
(PID.TID 0000.0001) PTRACERS_diffKrNr = /* Vertical Diffusivity */
(PID.TID 0000.0001)    35 @  1.000000000000000E-05              /* K =  1: 35 */
(PID.TID 0000.0001)     ;
(PID.TID 0000.0001) PTRACERS_useGMRedi = /* apply GM-Redi */
(PID.TID 0000.0001)                   F
(PID.TID 0000.0001)     ;
(PID.TID 0000.0001) PTRACERS_useDWNSLP = /* apply DOWN-SLOPE Flow */
(PID.TID 0000.0001)                   F
(PID.TID 0000.0001)     ;
(PID.TID 0000.0001) PTRACERS_useKPP = /* apply KPP scheme */
(PID.TID 0000.0001)                   F
(PID.TID 0000.0001)     ;
(PID.TID 0000.0001) PTRACERS_ref = /* Reference vertical profile */
(PID.TID 0000.0001)    35 @  0.000000000000000E+00              /* K =  1: 35 */
(PID.TID 0000.0001)     ;
(PID.TID 0000.0001) PTRACERS_EvPrRn =/* tracer conc. in Evap. & Rain */
(PID.TID 0000.0001)                 1.234567000000000E+05
(PID.TID 0000.0001)     ;
(PID.TID 0000.0001)  -----------------------------------
(PID.TID 0000.0001)  tracer number :   81
(PID.TID 0000.0001) PTRACERS_names = /* Tracer short name */
(PID.TID 0000.0001)               'Phy60'
(PID.TID 0000.0001)     ;
(PID.TID 0000.0001) PTRACERS_long_names = /* Tracer long name */
(PID.TID 0000.0001)               ''
(PID.TID 0000.0001)     ;
(PID.TID 0000.0001) PTRACERS_ioLabel = /* tracer IO Label */
(PID.TID 0000.0001)               '81'
(PID.TID 0000.0001)     ;
(PID.TID 0000.0001) PTRACERS_advScheme = /* Advection Scheme */
(PID.TID 0000.0001)                      33
(PID.TID 0000.0001)     ;
(PID.TID 0000.0001) PTRACERS_ImplVertAdv = /* implicit vert. advection flag */
(PID.TID 0000.0001)                   F
(PID.TID 0000.0001)     ;
(PID.TID 0000.0001) PTRACERS_diffKh = /* Laplacian Diffusivity */
(PID.TID 0000.0001)                 0.000000000000000E+00
(PID.TID 0000.0001)     ;
(PID.TID 0000.0001) PTRACERS_diffK4 = /* Biharmonic Diffusivity */
(PID.TID 0000.0001)                 0.000000000000000E+00
(PID.TID 0000.0001)     ;
(PID.TID 0000.0001) PTRACERS_diffKrNr = /* Vertical Diffusivity */
(PID.TID 0000.0001)    35 @  1.000000000000000E-05              /* K =  1: 35 */
(PID.TID 0000.0001)     ;
(PID.TID 0000.0001) PTRACERS_useGMRedi = /* apply GM-Redi */
(PID.TID 0000.0001)                   F
(PID.TID 0000.0001)     ;
(PID.TID 0000.0001) PTRACERS_useDWNSLP = /* apply DOWN-SLOPE Flow */
(PID.TID 0000.0001)                   F
(PID.TID 0000.0001)     ;
(PID.TID 0000.0001) PTRACERS_useKPP = /* apply KPP scheme */
(PID.TID 0000.0001)                   F
(PID.TID 0000.0001)     ;
(PID.TID 0000.0001) PTRACERS_ref = /* Reference vertical profile */
(PID.TID 0000.0001)    35 @  0.000000000000000E+00              /* K =  1: 35 */
(PID.TID 0000.0001)     ;
(PID.TID 0000.0001) PTRACERS_EvPrRn =/* tracer conc. in Evap. & Rain */
(PID.TID 0000.0001)                 1.234567000000000E+05
(PID.TID 0000.0001)     ;
(PID.TID 0000.0001)  -----------------------------------
(PID.TID 0000.0001)  tracer number :   82
(PID.TID 0000.0001) PTRACERS_names = /* Tracer short name */
(PID.TID 0000.0001)               'Phy61'
(PID.TID 0000.0001)     ;
(PID.TID 0000.0001) PTRACERS_long_names = /* Tracer long name */
(PID.TID 0000.0001)               ''
(PID.TID 0000.0001)     ;
(PID.TID 0000.0001) PTRACERS_ioLabel = /* tracer IO Label */
(PID.TID 0000.0001)               '82'
(PID.TID 0000.0001)     ;
(PID.TID 0000.0001) PTRACERS_advScheme = /* Advection Scheme */
(PID.TID 0000.0001)                      33
(PID.TID 0000.0001)     ;
(PID.TID 0000.0001) PTRACERS_ImplVertAdv = /* implicit vert. advection flag */
(PID.TID 0000.0001)                   F
(PID.TID 0000.0001)     ;
(PID.TID 0000.0001) PTRACERS_diffKh = /* Laplacian Diffusivity */
(PID.TID 0000.0001)                 0.000000000000000E+00
(PID.TID 0000.0001)     ;
(PID.TID 0000.0001) PTRACERS_diffK4 = /* Biharmonic Diffusivity */
(PID.TID 0000.0001)                 0.000000000000000E+00
(PID.TID 0000.0001)     ;
(PID.TID 0000.0001) PTRACERS_diffKrNr = /* Vertical Diffusivity */
(PID.TID 0000.0001)    35 @  1.000000000000000E-05              /* K =  1: 35 */
(PID.TID 0000.0001)     ;
(PID.TID 0000.0001) PTRACERS_useGMRedi = /* apply GM-Redi */
(PID.TID 0000.0001)                   F
(PID.TID 0000.0001)     ;
(PID.TID 0000.0001) PTRACERS_useDWNSLP = /* apply DOWN-SLOPE Flow */
(PID.TID 0000.0001)                   F
(PID.TID 0000.0001)     ;
(PID.TID 0000.0001) PTRACERS_useKPP = /* apply KPP scheme */
(PID.TID 0000.0001)                   F
(PID.TID 0000.0001)     ;
(PID.TID 0000.0001) PTRACERS_ref = /* Reference vertical profile */
(PID.TID 0000.0001)    35 @  0.000000000000000E+00              /* K =  1: 35 */
(PID.TID 0000.0001)     ;
(PID.TID 0000.0001) PTRACERS_EvPrRn =/* tracer conc. in Evap. & Rain */
(PID.TID 0000.0001)                 1.234567000000000E+05
(PID.TID 0000.0001)     ;
(PID.TID 0000.0001)  -----------------------------------
(PID.TID 0000.0001)  tracer number :   83
(PID.TID 0000.0001) PTRACERS_names = /* Tracer short name */
(PID.TID 0000.0001)               'Phy62'
(PID.TID 0000.0001)     ;
(PID.TID 0000.0001) PTRACERS_long_names = /* Tracer long name */
(PID.TID 0000.0001)               ''
(PID.TID 0000.0001)     ;
(PID.TID 0000.0001) PTRACERS_ioLabel = /* tracer IO Label */
(PID.TID 0000.0001)               '83'
(PID.TID 0000.0001)     ;
(PID.TID 0000.0001) PTRACERS_advScheme = /* Advection Scheme */
(PID.TID 0000.0001)                      33
(PID.TID 0000.0001)     ;
(PID.TID 0000.0001) PTRACERS_ImplVertAdv = /* implicit vert. advection flag */
(PID.TID 0000.0001)                   F
(PID.TID 0000.0001)     ;
(PID.TID 0000.0001) PTRACERS_diffKh = /* Laplacian Diffusivity */
(PID.TID 0000.0001)                 0.000000000000000E+00
(PID.TID 0000.0001)     ;
(PID.TID 0000.0001) PTRACERS_diffK4 = /* Biharmonic Diffusivity */
(PID.TID 0000.0001)                 0.000000000000000E+00
(PID.TID 0000.0001)     ;
(PID.TID 0000.0001) PTRACERS_diffKrNr = /* Vertical Diffusivity */
(PID.TID 0000.0001)    35 @  1.000000000000000E-05              /* K =  1: 35 */
(PID.TID 0000.0001)     ;
(PID.TID 0000.0001) PTRACERS_useGMRedi = /* apply GM-Redi */
(PID.TID 0000.0001)                   F
(PID.TID 0000.0001)     ;
(PID.TID 0000.0001) PTRACERS_useDWNSLP = /* apply DOWN-SLOPE Flow */
(PID.TID 0000.0001)                   F
(PID.TID 0000.0001)     ;
(PID.TID 0000.0001) PTRACERS_useKPP = /* apply KPP scheme */
(PID.TID 0000.0001)                   F
(PID.TID 0000.0001)     ;
(PID.TID 0000.0001) PTRACERS_ref = /* Reference vertical profile */
(PID.TID 0000.0001)    35 @  0.000000000000000E+00              /* K =  1: 35 */
(PID.TID 0000.0001)     ;
(PID.TID 0000.0001) PTRACERS_EvPrRn =/* tracer conc. in Evap. & Rain */
(PID.TID 0000.0001)                 1.234567000000000E+05
(PID.TID 0000.0001)     ;
(PID.TID 0000.0001)  -----------------------------------
(PID.TID 0000.0001)  tracer number :   84
(PID.TID 0000.0001) PTRACERS_names = /* Tracer short name */
(PID.TID 0000.0001)               'Phy63'
(PID.TID 0000.0001)     ;
(PID.TID 0000.0001) PTRACERS_long_names = /* Tracer long name */
(PID.TID 0000.0001)               ''
(PID.TID 0000.0001)     ;
(PID.TID 0000.0001) PTRACERS_ioLabel = /* tracer IO Label */
(PID.TID 0000.0001)               '84'
(PID.TID 0000.0001)     ;
(PID.TID 0000.0001) PTRACERS_advScheme = /* Advection Scheme */
(PID.TID 0000.0001)                      33
(PID.TID 0000.0001)     ;
(PID.TID 0000.0001) PTRACERS_ImplVertAdv = /* implicit vert. advection flag */
(PID.TID 0000.0001)                   F
(PID.TID 0000.0001)     ;
(PID.TID 0000.0001) PTRACERS_diffKh = /* Laplacian Diffusivity */
(PID.TID 0000.0001)                 0.000000000000000E+00
(PID.TID 0000.0001)     ;
(PID.TID 0000.0001) PTRACERS_diffK4 = /* Biharmonic Diffusivity */
(PID.TID 0000.0001)                 0.000000000000000E+00
(PID.TID 0000.0001)     ;
(PID.TID 0000.0001) PTRACERS_diffKrNr = /* Vertical Diffusivity */
(PID.TID 0000.0001)    35 @  1.000000000000000E-05              /* K =  1: 35 */
(PID.TID 0000.0001)     ;
(PID.TID 0000.0001) PTRACERS_useGMRedi = /* apply GM-Redi */
(PID.TID 0000.0001)                   F
(PID.TID 0000.0001)     ;
(PID.TID 0000.0001) PTRACERS_useDWNSLP = /* apply DOWN-SLOPE Flow */
(PID.TID 0000.0001)                   F
(PID.TID 0000.0001)     ;
(PID.TID 0000.0001) PTRACERS_useKPP = /* apply KPP scheme */
(PID.TID 0000.0001)                   F
(PID.TID 0000.0001)     ;
(PID.TID 0000.0001) PTRACERS_ref = /* Reference vertical profile */
(PID.TID 0000.0001)    35 @  0.000000000000000E+00              /* K =  1: 35 */
(PID.TID 0000.0001)     ;
(PID.TID 0000.0001) PTRACERS_EvPrRn =/* tracer conc. in Evap. & Rain */
(PID.TID 0000.0001)                 1.234567000000000E+05
(PID.TID 0000.0001)     ;
(PID.TID 0000.0001)  -----------------------------------
(PID.TID 0000.0001)  tracer number :   85
(PID.TID 0000.0001) PTRACERS_names = /* Tracer short name */
(PID.TID 0000.0001)               'Phy64'
(PID.TID 0000.0001)     ;
(PID.TID 0000.0001) PTRACERS_long_names = /* Tracer long name */
(PID.TID 0000.0001)               ''
(PID.TID 0000.0001)     ;
(PID.TID 0000.0001) PTRACERS_ioLabel = /* tracer IO Label */
(PID.TID 0000.0001)               '85'
(PID.TID 0000.0001)     ;
(PID.TID 0000.0001) PTRACERS_advScheme = /* Advection Scheme */
(PID.TID 0000.0001)                      33
(PID.TID 0000.0001)     ;
(PID.TID 0000.0001) PTRACERS_ImplVertAdv = /* implicit vert. advection flag */
(PID.TID 0000.0001)                   F
(PID.TID 0000.0001)     ;
(PID.TID 0000.0001) PTRACERS_diffKh = /* Laplacian Diffusivity */
(PID.TID 0000.0001)                 0.000000000000000E+00
(PID.TID 0000.0001)     ;
(PID.TID 0000.0001) PTRACERS_diffK4 = /* Biharmonic Diffusivity */
(PID.TID 0000.0001)                 0.000000000000000E+00
(PID.TID 0000.0001)     ;
(PID.TID 0000.0001) PTRACERS_diffKrNr = /* Vertical Diffusivity */
(PID.TID 0000.0001)    35 @  1.000000000000000E-05              /* K =  1: 35 */
(PID.TID 0000.0001)     ;
(PID.TID 0000.0001) PTRACERS_useGMRedi = /* apply GM-Redi */
(PID.TID 0000.0001)                   F
(PID.TID 0000.0001)     ;
(PID.TID 0000.0001) PTRACERS_useDWNSLP = /* apply DOWN-SLOPE Flow */
(PID.TID 0000.0001)                   F
(PID.TID 0000.0001)     ;
(PID.TID 0000.0001) PTRACERS_useKPP = /* apply KPP scheme */
(PID.TID 0000.0001)                   F
(PID.TID 0000.0001)     ;
(PID.TID 0000.0001) PTRACERS_ref = /* Reference vertical profile */
(PID.TID 0000.0001)    35 @  0.000000000000000E+00              /* K =  1: 35 */
(PID.TID 0000.0001)     ;
(PID.TID 0000.0001) PTRACERS_EvPrRn =/* tracer conc. in Evap. & Rain */
(PID.TID 0000.0001)                 1.234567000000000E+05
(PID.TID 0000.0001)     ;
(PID.TID 0000.0001)  -----------------------------------
(PID.TID 0000.0001)  tracer number :   86
(PID.TID 0000.0001) PTRACERS_names = /* Tracer short name */
(PID.TID 0000.0001)               'Phy65'
(PID.TID 0000.0001)     ;
(PID.TID 0000.0001) PTRACERS_long_names = /* Tracer long name */
(PID.TID 0000.0001)               ''
(PID.TID 0000.0001)     ;
(PID.TID 0000.0001) PTRACERS_ioLabel = /* tracer IO Label */
(PID.TID 0000.0001)               '86'
(PID.TID 0000.0001)     ;
(PID.TID 0000.0001) PTRACERS_advScheme = /* Advection Scheme */
(PID.TID 0000.0001)                      33
(PID.TID 0000.0001)     ;
(PID.TID 0000.0001) PTRACERS_ImplVertAdv = /* implicit vert. advection flag */
(PID.TID 0000.0001)                   F
(PID.TID 0000.0001)     ;
(PID.TID 0000.0001) PTRACERS_diffKh = /* Laplacian Diffusivity */
(PID.TID 0000.0001)                 0.000000000000000E+00
(PID.TID 0000.0001)     ;
(PID.TID 0000.0001) PTRACERS_diffK4 = /* Biharmonic Diffusivity */
(PID.TID 0000.0001)                 0.000000000000000E+00
(PID.TID 0000.0001)     ;
(PID.TID 0000.0001) PTRACERS_diffKrNr = /* Vertical Diffusivity */
(PID.TID 0000.0001)    35 @  1.000000000000000E-05              /* K =  1: 35 */
(PID.TID 0000.0001)     ;
(PID.TID 0000.0001) PTRACERS_useGMRedi = /* apply GM-Redi */
(PID.TID 0000.0001)                   F
(PID.TID 0000.0001)     ;
(PID.TID 0000.0001) PTRACERS_useDWNSLP = /* apply DOWN-SLOPE Flow */
(PID.TID 0000.0001)                   F
(PID.TID 0000.0001)     ;
(PID.TID 0000.0001) PTRACERS_useKPP = /* apply KPP scheme */
(PID.TID 0000.0001)                   F
(PID.TID 0000.0001)     ;
(PID.TID 0000.0001) PTRACERS_ref = /* Reference vertical profile */
(PID.TID 0000.0001)    35 @  0.000000000000000E+00              /* K =  1: 35 */
(PID.TID 0000.0001)     ;
(PID.TID 0000.0001) PTRACERS_EvPrRn =/* tracer conc. in Evap. & Rain */
(PID.TID 0000.0001)                 1.234567000000000E+05
(PID.TID 0000.0001)     ;
(PID.TID 0000.0001)  -----------------------------------
(PID.TID 0000.0001)  tracer number :   87
(PID.TID 0000.0001) PTRACERS_names = /* Tracer short name */
(PID.TID 0000.0001)               'Phy66'
(PID.TID 0000.0001)     ;
(PID.TID 0000.0001) PTRACERS_long_names = /* Tracer long name */
(PID.TID 0000.0001)               ''
(PID.TID 0000.0001)     ;
(PID.TID 0000.0001) PTRACERS_ioLabel = /* tracer IO Label */
(PID.TID 0000.0001)               '87'
(PID.TID 0000.0001)     ;
(PID.TID 0000.0001) PTRACERS_advScheme = /* Advection Scheme */
(PID.TID 0000.0001)                      33
(PID.TID 0000.0001)     ;
(PID.TID 0000.0001) PTRACERS_ImplVertAdv = /* implicit vert. advection flag */
(PID.TID 0000.0001)                   F
(PID.TID 0000.0001)     ;
(PID.TID 0000.0001) PTRACERS_diffKh = /* Laplacian Diffusivity */
(PID.TID 0000.0001)                 0.000000000000000E+00
(PID.TID 0000.0001)     ;
(PID.TID 0000.0001) PTRACERS_diffK4 = /* Biharmonic Diffusivity */
(PID.TID 0000.0001)                 0.000000000000000E+00
(PID.TID 0000.0001)     ;
(PID.TID 0000.0001) PTRACERS_diffKrNr = /* Vertical Diffusivity */
(PID.TID 0000.0001)    35 @  1.000000000000000E-05              /* K =  1: 35 */
(PID.TID 0000.0001)     ;
(PID.TID 0000.0001) PTRACERS_useGMRedi = /* apply GM-Redi */
(PID.TID 0000.0001)                   F
(PID.TID 0000.0001)     ;
(PID.TID 0000.0001) PTRACERS_useDWNSLP = /* apply DOWN-SLOPE Flow */
(PID.TID 0000.0001)                   F
(PID.TID 0000.0001)     ;
(PID.TID 0000.0001) PTRACERS_useKPP = /* apply KPP scheme */
(PID.TID 0000.0001)                   F
(PID.TID 0000.0001)     ;
(PID.TID 0000.0001) PTRACERS_ref = /* Reference vertical profile */
(PID.TID 0000.0001)    35 @  0.000000000000000E+00              /* K =  1: 35 */
(PID.TID 0000.0001)     ;
(PID.TID 0000.0001) PTRACERS_EvPrRn =/* tracer conc. in Evap. & Rain */
(PID.TID 0000.0001)                 1.234567000000000E+05
(PID.TID 0000.0001)     ;
(PID.TID 0000.0001)  -----------------------------------
(PID.TID 0000.0001)  tracer number :   88
(PID.TID 0000.0001) PTRACERS_names = /* Tracer short name */
(PID.TID 0000.0001)               'Phy67'
(PID.TID 0000.0001)     ;
(PID.TID 0000.0001) PTRACERS_long_names = /* Tracer long name */
(PID.TID 0000.0001)               ''
(PID.TID 0000.0001)     ;
(PID.TID 0000.0001) PTRACERS_ioLabel = /* tracer IO Label */
(PID.TID 0000.0001)               '88'
(PID.TID 0000.0001)     ;
(PID.TID 0000.0001) PTRACERS_advScheme = /* Advection Scheme */
(PID.TID 0000.0001)                      33
(PID.TID 0000.0001)     ;
(PID.TID 0000.0001) PTRACERS_ImplVertAdv = /* implicit vert. advection flag */
(PID.TID 0000.0001)                   F
(PID.TID 0000.0001)     ;
(PID.TID 0000.0001) PTRACERS_diffKh = /* Laplacian Diffusivity */
(PID.TID 0000.0001)                 0.000000000000000E+00
(PID.TID 0000.0001)     ;
(PID.TID 0000.0001) PTRACERS_diffK4 = /* Biharmonic Diffusivity */
(PID.TID 0000.0001)                 0.000000000000000E+00
(PID.TID 0000.0001)     ;
(PID.TID 0000.0001) PTRACERS_diffKrNr = /* Vertical Diffusivity */
(PID.TID 0000.0001)    35 @  1.000000000000000E-05              /* K =  1: 35 */
(PID.TID 0000.0001)     ;
(PID.TID 0000.0001) PTRACERS_useGMRedi = /* apply GM-Redi */
(PID.TID 0000.0001)                   F
(PID.TID 0000.0001)     ;
(PID.TID 0000.0001) PTRACERS_useDWNSLP = /* apply DOWN-SLOPE Flow */
(PID.TID 0000.0001)                   F
(PID.TID 0000.0001)     ;
(PID.TID 0000.0001) PTRACERS_useKPP = /* apply KPP scheme */
(PID.TID 0000.0001)                   F
(PID.TID 0000.0001)     ;
(PID.TID 0000.0001) PTRACERS_ref = /* Reference vertical profile */
(PID.TID 0000.0001)    35 @  0.000000000000000E+00              /* K =  1: 35 */
(PID.TID 0000.0001)     ;
(PID.TID 0000.0001) PTRACERS_EvPrRn =/* tracer conc. in Evap. & Rain */
(PID.TID 0000.0001)                 1.234567000000000E+05
(PID.TID 0000.0001)     ;
(PID.TID 0000.0001)  -----------------------------------
(PID.TID 0000.0001)  tracer number :   89
(PID.TID 0000.0001) PTRACERS_names = /* Tracer short name */
(PID.TID 0000.0001)               'Phy68'
(PID.TID 0000.0001)     ;
(PID.TID 0000.0001) PTRACERS_long_names = /* Tracer long name */
(PID.TID 0000.0001)               ''
(PID.TID 0000.0001)     ;
(PID.TID 0000.0001) PTRACERS_ioLabel = /* tracer IO Label */
(PID.TID 0000.0001)               '89'
(PID.TID 0000.0001)     ;
(PID.TID 0000.0001) PTRACERS_advScheme = /* Advection Scheme */
(PID.TID 0000.0001)                      33
(PID.TID 0000.0001)     ;
(PID.TID 0000.0001) PTRACERS_ImplVertAdv = /* implicit vert. advection flag */
(PID.TID 0000.0001)                   F
(PID.TID 0000.0001)     ;
(PID.TID 0000.0001) PTRACERS_diffKh = /* Laplacian Diffusivity */
(PID.TID 0000.0001)                 0.000000000000000E+00
(PID.TID 0000.0001)     ;
(PID.TID 0000.0001) PTRACERS_diffK4 = /* Biharmonic Diffusivity */
(PID.TID 0000.0001)                 0.000000000000000E+00
(PID.TID 0000.0001)     ;
(PID.TID 0000.0001) PTRACERS_diffKrNr = /* Vertical Diffusivity */
(PID.TID 0000.0001)    35 @  1.000000000000000E-05              /* K =  1: 35 */
(PID.TID 0000.0001)     ;
(PID.TID 0000.0001) PTRACERS_useGMRedi = /* apply GM-Redi */
(PID.TID 0000.0001)                   F
(PID.TID 0000.0001)     ;
(PID.TID 0000.0001) PTRACERS_useDWNSLP = /* apply DOWN-SLOPE Flow */
(PID.TID 0000.0001)                   F
(PID.TID 0000.0001)     ;
(PID.TID 0000.0001) PTRACERS_useKPP = /* apply KPP scheme */
(PID.TID 0000.0001)                   F
(PID.TID 0000.0001)     ;
(PID.TID 0000.0001) PTRACERS_ref = /* Reference vertical profile */
(PID.TID 0000.0001)    35 @  0.000000000000000E+00              /* K =  1: 35 */
(PID.TID 0000.0001)     ;
(PID.TID 0000.0001) PTRACERS_EvPrRn =/* tracer conc. in Evap. & Rain */
(PID.TID 0000.0001)                 1.234567000000000E+05
(PID.TID 0000.0001)     ;
(PID.TID 0000.0001)  -----------------------------------
(PID.TID 0000.0001)  tracer number :   90
(PID.TID 0000.0001) PTRACERS_names = /* Tracer short name */
(PID.TID 0000.0001)               'Phy69'
(PID.TID 0000.0001)     ;
(PID.TID 0000.0001) PTRACERS_long_names = /* Tracer long name */
(PID.TID 0000.0001)               ''
(PID.TID 0000.0001)     ;
(PID.TID 0000.0001) PTRACERS_ioLabel = /* tracer IO Label */
(PID.TID 0000.0001)               '90'
(PID.TID 0000.0001)     ;
(PID.TID 0000.0001) PTRACERS_advScheme = /* Advection Scheme */
(PID.TID 0000.0001)                      33
(PID.TID 0000.0001)     ;
(PID.TID 0000.0001) PTRACERS_ImplVertAdv = /* implicit vert. advection flag */
(PID.TID 0000.0001)                   F
(PID.TID 0000.0001)     ;
(PID.TID 0000.0001) PTRACERS_diffKh = /* Laplacian Diffusivity */
(PID.TID 0000.0001)                 0.000000000000000E+00
(PID.TID 0000.0001)     ;
(PID.TID 0000.0001) PTRACERS_diffK4 = /* Biharmonic Diffusivity */
(PID.TID 0000.0001)                 0.000000000000000E+00
(PID.TID 0000.0001)     ;
(PID.TID 0000.0001) PTRACERS_diffKrNr = /* Vertical Diffusivity */
(PID.TID 0000.0001)    35 @  1.000000000000000E-05              /* K =  1: 35 */
(PID.TID 0000.0001)     ;
(PID.TID 0000.0001) PTRACERS_useGMRedi = /* apply GM-Redi */
(PID.TID 0000.0001)                   F
(PID.TID 0000.0001)     ;
(PID.TID 0000.0001) PTRACERS_useDWNSLP = /* apply DOWN-SLOPE Flow */
(PID.TID 0000.0001)                   F
(PID.TID 0000.0001)     ;
(PID.TID 0000.0001) PTRACERS_useKPP = /* apply KPP scheme */
(PID.TID 0000.0001)                   F
(PID.TID 0000.0001)     ;
(PID.TID 0000.0001) PTRACERS_ref = /* Reference vertical profile */
(PID.TID 0000.0001)    35 @  0.000000000000000E+00              /* K =  1: 35 */
(PID.TID 0000.0001)     ;
(PID.TID 0000.0001) PTRACERS_EvPrRn =/* tracer conc. in Evap. & Rain */
(PID.TID 0000.0001)                 1.234567000000000E+05
(PID.TID 0000.0001)     ;
(PID.TID 0000.0001)  -----------------------------------
(PID.TID 0000.0001)  tracer number :   91
(PID.TID 0000.0001) PTRACERS_names = /* Tracer short name */
(PID.TID 0000.0001)               'Phy70'
(PID.TID 0000.0001)     ;
(PID.TID 0000.0001) PTRACERS_long_names = /* Tracer long name */
(PID.TID 0000.0001)               ''
(PID.TID 0000.0001)     ;
(PID.TID 0000.0001) PTRACERS_ioLabel = /* tracer IO Label */
(PID.TID 0000.0001)               '91'
(PID.TID 0000.0001)     ;
(PID.TID 0000.0001) PTRACERS_advScheme = /* Advection Scheme */
(PID.TID 0000.0001)                      33
(PID.TID 0000.0001)     ;
(PID.TID 0000.0001) PTRACERS_ImplVertAdv = /* implicit vert. advection flag */
(PID.TID 0000.0001)                   F
(PID.TID 0000.0001)     ;
(PID.TID 0000.0001) PTRACERS_diffKh = /* Laplacian Diffusivity */
(PID.TID 0000.0001)                 0.000000000000000E+00
(PID.TID 0000.0001)     ;
(PID.TID 0000.0001) PTRACERS_diffK4 = /* Biharmonic Diffusivity */
(PID.TID 0000.0001)                 0.000000000000000E+00
(PID.TID 0000.0001)     ;
(PID.TID 0000.0001) PTRACERS_diffKrNr = /* Vertical Diffusivity */
(PID.TID 0000.0001)    35 @  1.000000000000000E-05              /* K =  1: 35 */
(PID.TID 0000.0001)     ;
(PID.TID 0000.0001) PTRACERS_useGMRedi = /* apply GM-Redi */
(PID.TID 0000.0001)                   F
(PID.TID 0000.0001)     ;
(PID.TID 0000.0001) PTRACERS_useDWNSLP = /* apply DOWN-SLOPE Flow */
(PID.TID 0000.0001)                   F
(PID.TID 0000.0001)     ;
(PID.TID 0000.0001) PTRACERS_useKPP = /* apply KPP scheme */
(PID.TID 0000.0001)                   F
(PID.TID 0000.0001)     ;
(PID.TID 0000.0001) PTRACERS_ref = /* Reference vertical profile */
(PID.TID 0000.0001)    35 @  0.000000000000000E+00              /* K =  1: 35 */
(PID.TID 0000.0001)     ;
(PID.TID 0000.0001) PTRACERS_EvPrRn =/* tracer conc. in Evap. & Rain */
(PID.TID 0000.0001)                 1.234567000000000E+05
(PID.TID 0000.0001)     ;
(PID.TID 0000.0001)  -----------------------------------
(PID.TID 0000.0001)  tracer number :   92
(PID.TID 0000.0001) PTRACERS_names = /* Tracer short name */
(PID.TID 0000.0001)               'Phy71'
(PID.TID 0000.0001)     ;
(PID.TID 0000.0001) PTRACERS_long_names = /* Tracer long name */
(PID.TID 0000.0001)               ''
(PID.TID 0000.0001)     ;
(PID.TID 0000.0001) PTRACERS_ioLabel = /* tracer IO Label */
(PID.TID 0000.0001)               '92'
(PID.TID 0000.0001)     ;
(PID.TID 0000.0001) PTRACERS_advScheme = /* Advection Scheme */
(PID.TID 0000.0001)                      33
(PID.TID 0000.0001)     ;
(PID.TID 0000.0001) PTRACERS_ImplVertAdv = /* implicit vert. advection flag */
(PID.TID 0000.0001)                   F
(PID.TID 0000.0001)     ;
(PID.TID 0000.0001) PTRACERS_diffKh = /* Laplacian Diffusivity */
(PID.TID 0000.0001)                 0.000000000000000E+00
(PID.TID 0000.0001)     ;
(PID.TID 0000.0001) PTRACERS_diffK4 = /* Biharmonic Diffusivity */
(PID.TID 0000.0001)                 0.000000000000000E+00
(PID.TID 0000.0001)     ;
(PID.TID 0000.0001) PTRACERS_diffKrNr = /* Vertical Diffusivity */
(PID.TID 0000.0001)    35 @  1.000000000000000E-05              /* K =  1: 35 */
(PID.TID 0000.0001)     ;
(PID.TID 0000.0001) PTRACERS_useGMRedi = /* apply GM-Redi */
(PID.TID 0000.0001)                   F
(PID.TID 0000.0001)     ;
(PID.TID 0000.0001) PTRACERS_useDWNSLP = /* apply DOWN-SLOPE Flow */
(PID.TID 0000.0001)                   F
(PID.TID 0000.0001)     ;
(PID.TID 0000.0001) PTRACERS_useKPP = /* apply KPP scheme */
(PID.TID 0000.0001)                   F
(PID.TID 0000.0001)     ;
(PID.TID 0000.0001) PTRACERS_ref = /* Reference vertical profile */
(PID.TID 0000.0001)    35 @  0.000000000000000E+00              /* K =  1: 35 */
(PID.TID 0000.0001)     ;
(PID.TID 0000.0001) PTRACERS_EvPrRn =/* tracer conc. in Evap. & Rain */
(PID.TID 0000.0001)                 1.234567000000000E+05
(PID.TID 0000.0001)     ;
(PID.TID 0000.0001)  -----------------------------------
(PID.TID 0000.0001)  tracer number :   93
(PID.TID 0000.0001) PTRACERS_names = /* Tracer short name */
(PID.TID 0000.0001)               'Phy72'
(PID.TID 0000.0001)     ;
(PID.TID 0000.0001) PTRACERS_long_names = /* Tracer long name */
(PID.TID 0000.0001)               ''
(PID.TID 0000.0001)     ;
(PID.TID 0000.0001) PTRACERS_ioLabel = /* tracer IO Label */
(PID.TID 0000.0001)               '93'
(PID.TID 0000.0001)     ;
(PID.TID 0000.0001) PTRACERS_advScheme = /* Advection Scheme */
(PID.TID 0000.0001)                      33
(PID.TID 0000.0001)     ;
(PID.TID 0000.0001) PTRACERS_ImplVertAdv = /* implicit vert. advection flag */
(PID.TID 0000.0001)                   F
(PID.TID 0000.0001)     ;
(PID.TID 0000.0001) PTRACERS_diffKh = /* Laplacian Diffusivity */
(PID.TID 0000.0001)                 0.000000000000000E+00
(PID.TID 0000.0001)     ;
(PID.TID 0000.0001) PTRACERS_diffK4 = /* Biharmonic Diffusivity */
(PID.TID 0000.0001)                 0.000000000000000E+00
(PID.TID 0000.0001)     ;
(PID.TID 0000.0001) PTRACERS_diffKrNr = /* Vertical Diffusivity */
(PID.TID 0000.0001)    35 @  1.000000000000000E-05              /* K =  1: 35 */
(PID.TID 0000.0001)     ;
(PID.TID 0000.0001) PTRACERS_useGMRedi = /* apply GM-Redi */
(PID.TID 0000.0001)                   F
(PID.TID 0000.0001)     ;
(PID.TID 0000.0001) PTRACERS_useDWNSLP = /* apply DOWN-SLOPE Flow */
(PID.TID 0000.0001)                   F
(PID.TID 0000.0001)     ;
(PID.TID 0000.0001) PTRACERS_useKPP = /* apply KPP scheme */
(PID.TID 0000.0001)                   F
(PID.TID 0000.0001)     ;
(PID.TID 0000.0001) PTRACERS_ref = /* Reference vertical profile */
(PID.TID 0000.0001)    35 @  0.000000000000000E+00              /* K =  1: 35 */
(PID.TID 0000.0001)     ;
(PID.TID 0000.0001) PTRACERS_EvPrRn =/* tracer conc. in Evap. & Rain */
(PID.TID 0000.0001)                 1.234567000000000E+05
(PID.TID 0000.0001)     ;
(PID.TID 0000.0001)  -----------------------------------
(PID.TID 0000.0001)  tracer number :   94
(PID.TID 0000.0001) PTRACERS_names = /* Tracer short name */
(PID.TID 0000.0001)               'Phy73'
(PID.TID 0000.0001)     ;
(PID.TID 0000.0001) PTRACERS_long_names = /* Tracer long name */
(PID.TID 0000.0001)               ''
(PID.TID 0000.0001)     ;
(PID.TID 0000.0001) PTRACERS_ioLabel = /* tracer IO Label */
(PID.TID 0000.0001)               '94'
(PID.TID 0000.0001)     ;
(PID.TID 0000.0001) PTRACERS_advScheme = /* Advection Scheme */
(PID.TID 0000.0001)                      33
(PID.TID 0000.0001)     ;
(PID.TID 0000.0001) PTRACERS_ImplVertAdv = /* implicit vert. advection flag */
(PID.TID 0000.0001)                   F
(PID.TID 0000.0001)     ;
(PID.TID 0000.0001) PTRACERS_diffKh = /* Laplacian Diffusivity */
(PID.TID 0000.0001)                 0.000000000000000E+00
(PID.TID 0000.0001)     ;
(PID.TID 0000.0001) PTRACERS_diffK4 = /* Biharmonic Diffusivity */
(PID.TID 0000.0001)                 0.000000000000000E+00
(PID.TID 0000.0001)     ;
(PID.TID 0000.0001) PTRACERS_diffKrNr = /* Vertical Diffusivity */
(PID.TID 0000.0001)    35 @  1.000000000000000E-05              /* K =  1: 35 */
(PID.TID 0000.0001)     ;
(PID.TID 0000.0001) PTRACERS_useGMRedi = /* apply GM-Redi */
(PID.TID 0000.0001)                   F
(PID.TID 0000.0001)     ;
(PID.TID 0000.0001) PTRACERS_useDWNSLP = /* apply DOWN-SLOPE Flow */
(PID.TID 0000.0001)                   F
(PID.TID 0000.0001)     ;
(PID.TID 0000.0001) PTRACERS_useKPP = /* apply KPP scheme */
(PID.TID 0000.0001)                   F
(PID.TID 0000.0001)     ;
(PID.TID 0000.0001) PTRACERS_ref = /* Reference vertical profile */
(PID.TID 0000.0001)    35 @  0.000000000000000E+00              /* K =  1: 35 */
(PID.TID 0000.0001)     ;
(PID.TID 0000.0001) PTRACERS_EvPrRn =/* tracer conc. in Evap. & Rain */
(PID.TID 0000.0001)                 1.234567000000000E+05
(PID.TID 0000.0001)     ;
(PID.TID 0000.0001)  -----------------------------------
(PID.TID 0000.0001)  tracer number :   95
(PID.TID 0000.0001) PTRACERS_names = /* Tracer short name */
(PID.TID 0000.0001)               'Phy74'
(PID.TID 0000.0001)     ;
(PID.TID 0000.0001) PTRACERS_long_names = /* Tracer long name */
(PID.TID 0000.0001)               ''
(PID.TID 0000.0001)     ;
(PID.TID 0000.0001) PTRACERS_ioLabel = /* tracer IO Label */
(PID.TID 0000.0001)               '95'
(PID.TID 0000.0001)     ;
(PID.TID 0000.0001) PTRACERS_advScheme = /* Advection Scheme */
(PID.TID 0000.0001)                      33
(PID.TID 0000.0001)     ;
(PID.TID 0000.0001) PTRACERS_ImplVertAdv = /* implicit vert. advection flag */
(PID.TID 0000.0001)                   F
(PID.TID 0000.0001)     ;
(PID.TID 0000.0001) PTRACERS_diffKh = /* Laplacian Diffusivity */
(PID.TID 0000.0001)                 0.000000000000000E+00
(PID.TID 0000.0001)     ;
(PID.TID 0000.0001) PTRACERS_diffK4 = /* Biharmonic Diffusivity */
(PID.TID 0000.0001)                 0.000000000000000E+00
(PID.TID 0000.0001)     ;
(PID.TID 0000.0001) PTRACERS_diffKrNr = /* Vertical Diffusivity */
(PID.TID 0000.0001)    35 @  1.000000000000000E-05              /* K =  1: 35 */
(PID.TID 0000.0001)     ;
(PID.TID 0000.0001) PTRACERS_useGMRedi = /* apply GM-Redi */
(PID.TID 0000.0001)                   F
(PID.TID 0000.0001)     ;
(PID.TID 0000.0001) PTRACERS_useDWNSLP = /* apply DOWN-SLOPE Flow */
(PID.TID 0000.0001)                   F
(PID.TID 0000.0001)     ;
(PID.TID 0000.0001) PTRACERS_useKPP = /* apply KPP scheme */
(PID.TID 0000.0001)                   F
(PID.TID 0000.0001)     ;
(PID.TID 0000.0001) PTRACERS_ref = /* Reference vertical profile */
(PID.TID 0000.0001)    35 @  0.000000000000000E+00              /* K =  1: 35 */
(PID.TID 0000.0001)     ;
(PID.TID 0000.0001) PTRACERS_EvPrRn =/* tracer conc. in Evap. & Rain */
(PID.TID 0000.0001)                 1.234567000000000E+05
(PID.TID 0000.0001)     ;
(PID.TID 0000.0001)  -----------------------------------
(PID.TID 0000.0001)  tracer number :   96
(PID.TID 0000.0001) PTRACERS_names = /* Tracer short name */
(PID.TID 0000.0001)               'Phy75'
(PID.TID 0000.0001)     ;
(PID.TID 0000.0001) PTRACERS_long_names = /* Tracer long name */
(PID.TID 0000.0001)               ''
(PID.TID 0000.0001)     ;
(PID.TID 0000.0001) PTRACERS_ioLabel = /* tracer IO Label */
(PID.TID 0000.0001)               '96'
(PID.TID 0000.0001)     ;
(PID.TID 0000.0001) PTRACERS_advScheme = /* Advection Scheme */
(PID.TID 0000.0001)                      33
(PID.TID 0000.0001)     ;
(PID.TID 0000.0001) PTRACERS_ImplVertAdv = /* implicit vert. advection flag */
(PID.TID 0000.0001)                   F
(PID.TID 0000.0001)     ;
(PID.TID 0000.0001) PTRACERS_diffKh = /* Laplacian Diffusivity */
(PID.TID 0000.0001)                 0.000000000000000E+00
(PID.TID 0000.0001)     ;
(PID.TID 0000.0001) PTRACERS_diffK4 = /* Biharmonic Diffusivity */
(PID.TID 0000.0001)                 0.000000000000000E+00
(PID.TID 0000.0001)     ;
(PID.TID 0000.0001) PTRACERS_diffKrNr = /* Vertical Diffusivity */
(PID.TID 0000.0001)    35 @  1.000000000000000E-05              /* K =  1: 35 */
(PID.TID 0000.0001)     ;
(PID.TID 0000.0001) PTRACERS_useGMRedi = /* apply GM-Redi */
(PID.TID 0000.0001)                   F
(PID.TID 0000.0001)     ;
(PID.TID 0000.0001) PTRACERS_useDWNSLP = /* apply DOWN-SLOPE Flow */
(PID.TID 0000.0001)                   F
(PID.TID 0000.0001)     ;
(PID.TID 0000.0001) PTRACERS_useKPP = /* apply KPP scheme */
(PID.TID 0000.0001)                   F
(PID.TID 0000.0001)     ;
(PID.TID 0000.0001) PTRACERS_ref = /* Reference vertical profile */
(PID.TID 0000.0001)    35 @  0.000000000000000E+00              /* K =  1: 35 */
(PID.TID 0000.0001)     ;
(PID.TID 0000.0001) PTRACERS_EvPrRn =/* tracer conc. in Evap. & Rain */
(PID.TID 0000.0001)                 1.234567000000000E+05
(PID.TID 0000.0001)     ;
(PID.TID 0000.0001)  -----------------------------------
(PID.TID 0000.0001)  tracer number :   97
(PID.TID 0000.0001) PTRACERS_names = /* Tracer short name */
(PID.TID 0000.0001)               'Phy76'
(PID.TID 0000.0001)     ;
(PID.TID 0000.0001) PTRACERS_long_names = /* Tracer long name */
(PID.TID 0000.0001)               ''
(PID.TID 0000.0001)     ;
(PID.TID 0000.0001) PTRACERS_ioLabel = /* tracer IO Label */
(PID.TID 0000.0001)               '97'
(PID.TID 0000.0001)     ;
(PID.TID 0000.0001) PTRACERS_advScheme = /* Advection Scheme */
(PID.TID 0000.0001)                      33
(PID.TID 0000.0001)     ;
(PID.TID 0000.0001) PTRACERS_ImplVertAdv = /* implicit vert. advection flag */
(PID.TID 0000.0001)                   F
(PID.TID 0000.0001)     ;
(PID.TID 0000.0001) PTRACERS_diffKh = /* Laplacian Diffusivity */
(PID.TID 0000.0001)                 0.000000000000000E+00
(PID.TID 0000.0001)     ;
(PID.TID 0000.0001) PTRACERS_diffK4 = /* Biharmonic Diffusivity */
(PID.TID 0000.0001)                 0.000000000000000E+00
(PID.TID 0000.0001)     ;
(PID.TID 0000.0001) PTRACERS_diffKrNr = /* Vertical Diffusivity */
(PID.TID 0000.0001)    35 @  1.000000000000000E-05              /* K =  1: 35 */
(PID.TID 0000.0001)     ;
(PID.TID 0000.0001) PTRACERS_useGMRedi = /* apply GM-Redi */
(PID.TID 0000.0001)                   F
(PID.TID 0000.0001)     ;
(PID.TID 0000.0001) PTRACERS_useDWNSLP = /* apply DOWN-SLOPE Flow */
(PID.TID 0000.0001)                   F
(PID.TID 0000.0001)     ;
(PID.TID 0000.0001) PTRACERS_useKPP = /* apply KPP scheme */
(PID.TID 0000.0001)                   F
(PID.TID 0000.0001)     ;
(PID.TID 0000.0001) PTRACERS_ref = /* Reference vertical profile */
(PID.TID 0000.0001)    35 @  0.000000000000000E+00              /* K =  1: 35 */
(PID.TID 0000.0001)     ;
(PID.TID 0000.0001) PTRACERS_EvPrRn =/* tracer conc. in Evap. & Rain */
(PID.TID 0000.0001)                 1.234567000000000E+05
(PID.TID 0000.0001)     ;
(PID.TID 0000.0001)  -----------------------------------
(PID.TID 0000.0001)  tracer number :   98
(PID.TID 0000.0001) PTRACERS_names = /* Tracer short name */
(PID.TID 0000.0001)               'Phy77'
(PID.TID 0000.0001)     ;
(PID.TID 0000.0001) PTRACERS_long_names = /* Tracer long name */
(PID.TID 0000.0001)               ''
(PID.TID 0000.0001)     ;
(PID.TID 0000.0001) PTRACERS_ioLabel = /* tracer IO Label */
(PID.TID 0000.0001)               '98'
(PID.TID 0000.0001)     ;
(PID.TID 0000.0001) PTRACERS_advScheme = /* Advection Scheme */
(PID.TID 0000.0001)                      33
(PID.TID 0000.0001)     ;
(PID.TID 0000.0001) PTRACERS_ImplVertAdv = /* implicit vert. advection flag */
(PID.TID 0000.0001)                   F
(PID.TID 0000.0001)     ;
(PID.TID 0000.0001) PTRACERS_diffKh = /* Laplacian Diffusivity */
(PID.TID 0000.0001)                 0.000000000000000E+00
(PID.TID 0000.0001)     ;
(PID.TID 0000.0001) PTRACERS_diffK4 = /* Biharmonic Diffusivity */
(PID.TID 0000.0001)                 0.000000000000000E+00
(PID.TID 0000.0001)     ;
(PID.TID 0000.0001) PTRACERS_diffKrNr = /* Vertical Diffusivity */
(PID.TID 0000.0001)    35 @  1.000000000000000E-05              /* K =  1: 35 */
(PID.TID 0000.0001)     ;
(PID.TID 0000.0001) PTRACERS_useGMRedi = /* apply GM-Redi */
(PID.TID 0000.0001)                   F
(PID.TID 0000.0001)     ;
(PID.TID 0000.0001) PTRACERS_useDWNSLP = /* apply DOWN-SLOPE Flow */
(PID.TID 0000.0001)                   F
(PID.TID 0000.0001)     ;
(PID.TID 0000.0001) PTRACERS_useKPP = /* apply KPP scheme */
(PID.TID 0000.0001)                   F
(PID.TID 0000.0001)     ;
(PID.TID 0000.0001) PTRACERS_ref = /* Reference vertical profile */
(PID.TID 0000.0001)    35 @  0.000000000000000E+00              /* K =  1: 35 */
(PID.TID 0000.0001)     ;
(PID.TID 0000.0001) PTRACERS_EvPrRn =/* tracer conc. in Evap. & Rain */
(PID.TID 0000.0001)                 1.234567000000000E+05
(PID.TID 0000.0001)     ;
(PID.TID 0000.0001)  -----------------------------------
(PID.TID 0000.0001)  tracer number :   99
(PID.TID 0000.0001) PTRACERS_names = /* Tracer short name */
(PID.TID 0000.0001)               'Phy78'
(PID.TID 0000.0001)     ;
(PID.TID 0000.0001) PTRACERS_long_names = /* Tracer long name */
(PID.TID 0000.0001)               ''
(PID.TID 0000.0001)     ;
(PID.TID 0000.0001) PTRACERS_ioLabel = /* tracer IO Label */
(PID.TID 0000.0001)               '99'
(PID.TID 0000.0001)     ;
(PID.TID 0000.0001) PTRACERS_advScheme = /* Advection Scheme */
(PID.TID 0000.0001)                      33
(PID.TID 0000.0001)     ;
(PID.TID 0000.0001) PTRACERS_ImplVertAdv = /* implicit vert. advection flag */
(PID.TID 0000.0001)                   F
(PID.TID 0000.0001)     ;
(PID.TID 0000.0001) PTRACERS_diffKh = /* Laplacian Diffusivity */
(PID.TID 0000.0001)                 0.000000000000000E+00
(PID.TID 0000.0001)     ;
(PID.TID 0000.0001) PTRACERS_diffK4 = /* Biharmonic Diffusivity */
(PID.TID 0000.0001)                 0.000000000000000E+00
(PID.TID 0000.0001)     ;
(PID.TID 0000.0001) PTRACERS_diffKrNr = /* Vertical Diffusivity */
(PID.TID 0000.0001)    35 @  1.000000000000000E-05              /* K =  1: 35 */
(PID.TID 0000.0001)     ;
(PID.TID 0000.0001) PTRACERS_useGMRedi = /* apply GM-Redi */
(PID.TID 0000.0001)                   F
(PID.TID 0000.0001)     ;
(PID.TID 0000.0001) PTRACERS_useDWNSLP = /* apply DOWN-SLOPE Flow */
(PID.TID 0000.0001)                   F
(PID.TID 0000.0001)     ;
(PID.TID 0000.0001) PTRACERS_useKPP = /* apply KPP scheme */
(PID.TID 0000.0001)                   F
(PID.TID 0000.0001)     ;
(PID.TID 0000.0001) PTRACERS_ref = /* Reference vertical profile */
(PID.TID 0000.0001)    35 @  0.000000000000000E+00              /* K =  1: 35 */
(PID.TID 0000.0001)     ;
(PID.TID 0000.0001) PTRACERS_EvPrRn =/* tracer conc. in Evap. & Rain */
(PID.TID 0000.0001)                 1.234567000000000E+05
(PID.TID 0000.0001)     ;
(PID.TID 0000.0001)  -----------------------------------
(PID.TID 0000.0001)  GCHEM_READPARMS: opening data.gchem
(PID.TID 0000.0001)  OPEN_COPY_DATA_FILE: opening file data.gchem
(PID.TID 0000.0001) // =======================================================
(PID.TID 0000.0001) // Parameter file "data.gchem"
(PID.TID 0000.0001) // =======================================================
(PID.TID 0000.0001) > &GCHEM_PARM01
(PID.TID 0000.0001) >  useDARWIN=.TRUE.,
(PID.TID 0000.0001) >  nsubtime=1,
(PID.TID 0000.0001) > /
(PID.TID 0000.0001) 
(PID.TID 0000.0001)  GCHEM_READPARMS: finished reading data.gchem
(PID.TID 0000.0001)  DARWIN_READPARMS: opening data.darwin
(PID.TID 0000.0001)  OPEN_COPY_DATA_FILE: opening file data.darwin
(PID.TID 0000.0001) // =======================================================
(PID.TID 0000.0001) // Parameter file "data.darwin"
(PID.TID 0000.0001) // =======================================================
(PID.TID 0000.0001) > &DARWIN_FORCING
(PID.TID 0000.0001) > darwin_ironFile='../input/input/loc1_FeFlux_monsurf.bin',
(PID.TID 0000.0001) >#darwin_PARFile='../input/input/loc1_PAR_monsurf.bin',
(PID.TID 0000.0001) > darwin_oasim_edFile='../input/input/loc1_oasim_edp_below.bin',
(PID.TID 0000.0001) > darwin_oasim_esFile='../input/input/loc1_oasim_esp_below.bin',
(PID.TID 0000.0001) > darwin_seed=11231,
(PID.TID 0000.0001) >#darwin_waterabsorbFile='abw_13wg.dat',
(PID.TID 0000.0001) > darwin_waterabsorbFile='abw25par.dat',
(PID.TID 0000.0001) >#darwin_phytoabsorbFile='a1_psc_13.dat',
(PID.TID 0000.0001) > darwin_phytoabsorbFile='phyto_optics_1bb.txt',
(PID.TID 0000.0001) > darwin_particleabsorbFile='optics_detritus_3bb.txt',
(PID.TID 0000.0001) >#darwin_surfacespecFile='surfspec_13amt6.dat',
(PID.TID 0000.0001) >#darwin_acdomFile='aCDOM13amtVK2006.dat',
(PID.TID 0000.0001) > /
(PID.TID 0000.0001) > &DARWIN_SPECTRAL_PARM
(PID.TID 0000.0001) >#darwin_bbphy=0.0029, 0.0032, 0.00559, 0.00559,
(PID.TID 0000.0001) > darwin_radtrans_kmax=22,
(PID.TID 0000.0001) > darwin_radtrans_niter=2,
(PID.TID 0000.0001) > /
(PID.TID 0000.0001) 
(PID.TID 0000.0001)  DARWIN_READPARMS: finished reading data.darwin
(PID.TID 0000.0001) // ===================================
(PID.TID 0000.0001) // darwin parameters
(PID.TID 0000.0001) // ===================================
(PID.TID 0000.0001) darwin_seed = /* seed for random number generator */
(PID.TID 0000.0001)                   11231
(PID.TID 0000.0001)     ;
(PID.TID 0000.0001)  -----------------------------------
(PID.TID 0000.0001) darwin_waves =   /* "central" wavelengths of wavebands */
(PID.TID 0000.0001)                     400,                    /* ?=   1 */
(PID.TID 0000.0001)                     425,                    /* ?=   2 */
(PID.TID 0000.0001)                     450,                    /* ?=   3 */
(PID.TID 0000.0001)                     475,                    /* ?=   4 */
(PID.TID 0000.0001)                     500,                    /* ?=   5 */
(PID.TID 0000.0001)                     525,                    /* ?=   6 */
(PID.TID 0000.0001)                     550,                    /* ?=   7 */
(PID.TID 0000.0001)                     575,                    /* ?=   8 */
(PID.TID 0000.0001)                     600,                    /* ?=   9 */
(PID.TID 0000.0001)                     625,                    /* ?=  10 */
(PID.TID 0000.0001)                     650,                    /* ?=  11 */
(PID.TID 0000.0001)                     675,                    /* ?=  12 */
(PID.TID 0000.0001)                     700                     /* ?=  13 */
(PID.TID 0000.0001)     ;
(PID.TID 0000.0001) darwin_Sdom =   /* spectral slope for aCDOM */
(PID.TID 0000.0001)                 1.400000000000000E-02
(PID.TID 0000.0001)     ;
(PID.TID 0000.0001) darwin_diag_acdom_ilam =   /* waveband to use for aCDOM diagnostic */
(PID.TID 0000.0001)                     450
(PID.TID 0000.0001)     ;
(PID.TID 0000.0001) darwin_PAR_ilamLo =   /* waveband index of PAR lower bound */
(PID.TID 0000.0001)                       1
(PID.TID 0000.0001)     ;
(PID.TID 0000.0001) darwin_PAR_ilamHi =   /* waveband index of PAR upper bound */
(PID.TID 0000.0001)                      13
(PID.TID 0000.0001)     ;
(PID.TID 0000.0001) darwin_radmodThresh =   /* threshold for calling radmod (W/m2/waveband) */
(PID.TID 0000.0001)                 1.000000000000000E-04
(PID.TID 0000.0001)     ;
(PID.TID 0000.0001) darwin_Dmax =   /* depth at which Ed is assumed zero */
(PID.TID 0000.0001)                 5.000000000000000E+02
(PID.TID 0000.0001)     ;
(PID.TID 0000.0001) darwin_rmus =   /* inverse average cosine of downward diffuse irradiance */
(PID.TID 0000.0001)                 1.204819277108434E+00
(PID.TID 0000.0001)     ;
(PID.TID 0000.0001) darwin_rmuu =   /* inverse average cosine of upward diffuse irradiance */
(PID.TID 0000.0001)                 2.500000000000000E+00
(PID.TID 0000.0001)     ;
(PID.TID 0000.0001) darwin_bbw =   /* backscattering to forward scattering ratio for water */
(PID.TID 0000.0001)                 5.000000000000000E-01
(PID.TID 0000.0001)     ;
(PID.TID 0000.0001) darwin_bbmin =   /* minimum backscattering coefficient (1/m) */
(PID.TID 0000.0001)                 2.000000000000000E-04
(PID.TID 0000.0001)     ;
(PID.TID 0000.0001) darwin_bbphy =   /* backscattering to forward scattering ratio for phyto */
(PID.TID 0000.0001)     4 @  0.000000000000000E+00              /* ?=   1:  4 */
(PID.TID 0000.0001)     ;
(PID.TID 0000.0001) darwin_radtrans_kmax =   /* deepest level in which to compute irradiances */
(PID.TID 0000.0001)                      22
(PID.TID 0000.0001)     ;
(PID.TID 0000.0001) darwin_radtrans_niter =   /* number of "radtrans improvement" iterations */
(PID.TID 0000.0001)                       2
(PID.TID 0000.0001)     ;
(PID.TID 0000.0001)  ===================================
(PID.TID 0000.0001) SET_PARMS: done
(PID.TID 0000.0001) Enter INI_VERTICAL_GRID: setInterFDr=    T ; setCenterDr=    F
(PID.TID 0000.0001) %MON XC_max                       =   3.3550000000000E+02
(PID.TID 0000.0001) %MON XC_min                       =   3.3550000000000E+02
(PID.TID 0000.0001) %MON XC_mean                      =   3.3550000000000E+02
(PID.TID 0000.0001) %MON XC_sd                        =   0.0000000000000E+00
(PID.TID 0000.0001) %MON XG_max                       =   3.3500000000000E+02
(PID.TID 0000.0001) %MON XG_min                       =   3.3500000000000E+02
(PID.TID 0000.0001) %MON XG_mean                      =   3.3500000000000E+02
(PID.TID 0000.0001) %MON XG_sd                        =   0.0000000000000E+00
(PID.TID 0000.0001) %MON DXC_max                      =   1.0603184087720E+05
(PID.TID 0000.0001) %MON DXC_min                      =   1.0603184087720E+05
(PID.TID 0000.0001) %MON DXC_mean                     =   1.0603184087720E+05
(PID.TID 0000.0001) %MON DXC_sd                       =   0.0000000000000E+00
(PID.TID 0000.0001) %MON DXF_max                      =   1.0603184087720E+05
(PID.TID 0000.0001) %MON DXF_min                      =   1.0603184087720E+05
(PID.TID 0000.0001) %MON DXF_mean                     =   1.0603184087720E+05
(PID.TID 0000.0001) %MON DXF_sd                       =   0.0000000000000E+00
(PID.TID 0000.0001) %MON DXG_max                      =   1.0573606049669E+05
(PID.TID 0000.0001) %MON DXG_min                      =   1.0573606049669E+05
(PID.TID 0000.0001) %MON DXG_mean                     =   1.0573606049669E+05
(PID.TID 0000.0001) %MON DXG_sd                       =   0.0000000000000E+00
(PID.TID 0000.0001) %MON DXV_max                      =   1.0573606049669E+05
(PID.TID 0000.0001) %MON DXV_min                      =   1.0573606049669E+05
(PID.TID 0000.0001) %MON DXV_mean                     =   1.0573606049669E+05
(PID.TID 0000.0001) %MON DXV_sd                       =   0.0000000000000E+00
(PID.TID 0000.0001) %MON YC_max                       =  -1.7500000000000E+01
(PID.TID 0000.0001) %MON YC_min                       =  -1.7500000000000E+01
(PID.TID 0000.0001) %MON YC_mean                      =  -1.7500000000000E+01
(PID.TID 0000.0001) %MON YC_sd                        =   0.0000000000000E+00
(PID.TID 0000.0001) %MON YG_max                       =  -1.8000000000000E+01
(PID.TID 0000.0001) %MON YG_min                       =  -1.8000000000000E+01
(PID.TID 0000.0001) %MON YG_mean                      =  -1.8000000000000E+01
(PID.TID 0000.0001) %MON YG_sd                        =   0.0000000000000E+00
(PID.TID 0000.0001) %MON DYC_max                      =   1.1117747335204E+05
(PID.TID 0000.0001) %MON DYC_min                      =   1.1117747335204E+05
(PID.TID 0000.0001) %MON DYC_mean                     =   1.1117747335204E+05
(PID.TID 0000.0001) %MON DYC_sd                       =   0.0000000000000E+00
(PID.TID 0000.0001) %MON DYF_max                      =   1.1117747335204E+05
(PID.TID 0000.0001) %MON DYF_min                      =   1.1117747335204E+05
(PID.TID 0000.0001) %MON DYF_mean                     =   1.1117747335204E+05
(PID.TID 0000.0001) %MON DYF_sd                       =   0.0000000000000E+00
(PID.TID 0000.0001) %MON DYG_max                      =   1.1117747335204E+05
(PID.TID 0000.0001) %MON DYG_min                      =   1.1117747335204E+05
(PID.TID 0000.0001) %MON DYG_mean                     =   1.1117747335204E+05
(PID.TID 0000.0001) %MON DYG_sd                       =   0.0000000000000E+00
(PID.TID 0000.0001) %MON DYU_max                      =   1.1117747335204E+05
(PID.TID 0000.0001) %MON DYU_min                      =   1.1117747335204E+05
(PID.TID 0000.0001) %MON DYU_mean                     =   1.1117747335204E+05
(PID.TID 0000.0001) %MON DYU_sd                       =   0.0000000000000E+00
(PID.TID 0000.0001) %MON RA_max                       =   1.1788202541770E+10
(PID.TID 0000.0001) %MON RA_min                       =   1.1788202541770E+10
(PID.TID 0000.0001) %MON RA_mean                      =   1.1788202541770E+10
(PID.TID 0000.0001) %MON RA_sd                        =   0.0000000000000E+00
(PID.TID 0000.0001) %MON RAW_max                      =   1.1788202541770E+10
(PID.TID 0000.0001) %MON RAW_min                      =   1.1788202541770E+10
(PID.TID 0000.0001) %MON RAW_mean                     =   1.1788202541770E+10
(PID.TID 0000.0001) %MON RAW_sd                       =   0.0000000000000E+00
(PID.TID 0000.0001) %MON RAS_max                      =   1.1755318843774E+10
(PID.TID 0000.0001) %MON RAS_min                      =   1.1755318843774E+10
(PID.TID 0000.0001) %MON RAS_mean                     =   1.1755318843774E+10
(PID.TID 0000.0001) %MON RAS_sd                       =   0.0000000000000E+00
(PID.TID 0000.0001) %MON RAZ_max                      =   1.1755318843774E+10
(PID.TID 0000.0001) %MON RAZ_min                      =   1.1755318843774E+10
(PID.TID 0000.0001) %MON RAZ_mean                     =   1.1755318843774E+10
(PID.TID 0000.0001) %MON RAZ_sd                       =   0.0000000000000E+00
(PID.TID 0000.0001) %MON AngleCS_max                  =   1.0000000000000E+00
(PID.TID 0000.0001) %MON AngleCS_min                  =   1.0000000000000E+00
(PID.TID 0000.0001) %MON AngleCS_mean                 =   1.0000000000000E+00
(PID.TID 0000.0001) %MON AngleCS_sd                   =   0.0000000000000E+00
(PID.TID 0000.0001) %MON AngleSN_max                  =   0.0000000000000E+00
(PID.TID 0000.0001) %MON AngleSN_min                  =   0.0000000000000E+00
(PID.TID 0000.0001) %MON AngleSN_mean                 =   0.0000000000000E+00
(PID.TID 0000.0001) %MON AngleSN_sd                   =   0.0000000000000E+00
(PID.TID 0000.0001)  MDS_READ_FIELD: opening global file: ../input/input/bathyneg.bin
(PID.TID 0000.0001) // =======================================================
(PID.TID 0000.0001) // Field Model R_low (ini_masks_etc) at iteration          1
(PID.TID 0000.0001) // CMIN =         -3.495000000000000E+03
(PID.TID 0000.0001) // CMAX =         -3.495000000000000E+03
(PID.TID 0000.0001) // CINT =          0.000000000000000E+00
(PID.TID 0000.0001) // SYMBOLS (CMIN->CMAX): -abcdefghijklmnopqrstuvwxyz+
(PID.TID 0000.0001) //                  0.0: .
(PID.TID 0000.0001) // RANGE I (Lo:Hi:Step):(    -1:     3:     1)
(PID.TID 0000.0001) // RANGE J (Lo:Hi:Step):(     3:    -1:    -1)
(PID.TID 0000.0001) // RANGE K (Lo:Hi:Step):(   1:   1:   1)
(PID.TID 0000.0001) // =======================================================
(PID.TID 0000.0001) // =======================================================
(PID.TID 0000.0001) // END OF FIELD                                          =
(PID.TID 0000.0001) // =======================================================
(PID.TID 0000.0001) 
(PID.TID 0000.0001) // =======================================================
(PID.TID 0000.0001) // Field Model Ro_surf (ini_masks_etc) at iteration          1
(PID.TID 0000.0001) // CMIN =          1.000000000000000E+32
(PID.TID 0000.0001) // CMAX =         -1.000000000000000E+32
(PID.TID 0000.0001) // CINT =          0.000000000000000E+00
(PID.TID 0000.0001) // SYMBOLS (CMIN->CMAX): -abcdefghijklmnopqrstuvwxyz+
(PID.TID 0000.0001) //                  0.0: .
(PID.TID 0000.0001) // RANGE I (Lo:Hi:Step):(    -1:     3:     1)
(PID.TID 0000.0001) // RANGE J (Lo:Hi:Step):(     3:    -1:    -1)
(PID.TID 0000.0001) // RANGE K (Lo:Hi:Step):(   1:   1:   1)
(PID.TID 0000.0001) // =======================================================
(PID.TID 0000.0001) // =======================================================
(PID.TID 0000.0001) // END OF FIELD                                          =
(PID.TID 0000.0001) // =======================================================
(PID.TID 0000.0001) 
(PID.TID 0000.0001) // =======================================================
(PID.TID 0000.0001) // Field hFacC at iteration          1
(PID.TID 0000.0001) // CMIN =          1.000000000000000E+00
(PID.TID 0000.0001) // CMAX =          1.000000000000000E+00
(PID.TID 0000.0001) // CINT =          0.000000000000000E+00
(PID.TID 0000.0001) // SYMBOLS (CMIN->CMAX): -abcdefghijklmnopqrstuvwxyz+
(PID.TID 0000.0001) //                  0.0: .
(PID.TID 0000.0001) // RANGE I (Lo:Hi:Step):(    -1:     3:     1)
(PID.TID 0000.0001) // RANGE J (Lo:Hi:Step):(     3:    -1:    -1)
(PID.TID 0000.0001) // RANGE K (Lo:Hi:Step):(   1:   1:   1)
(PID.TID 0000.0001) // =======================================================
(PID.TID 0000.0001) // =======================================================
(PID.TID 0000.0001) // END OF FIELD                                          =
(PID.TID 0000.0001) // =======================================================
(PID.TID 0000.0001) 
(PID.TID 0000.0001) // =======================================================
(PID.TID 0000.0001) // Field hFacW at iteration          1
(PID.TID 0000.0001) // CMIN =          1.000000000000000E+00
(PID.TID 0000.0001) // CMAX =          1.000000000000000E+00
(PID.TID 0000.0001) // CINT =          0.000000000000000E+00
(PID.TID 0000.0001) // SYMBOLS (CMIN->CMAX): -abcdefghijklmnopqrstuvwxyz+
(PID.TID 0000.0001) //                  0.0: .
(PID.TID 0000.0001) // RANGE I (Lo:Hi:Step):(    -1:     3:     1)
(PID.TID 0000.0001) // RANGE J (Lo:Hi:Step):(     3:    -1:    -1)
(PID.TID 0000.0001) // RANGE K (Lo:Hi:Step):(   1:   1:   1)
(PID.TID 0000.0001) // =======================================================
(PID.TID 0000.0001) // =======================================================
(PID.TID 0000.0001) // END OF FIELD                                          =
(PID.TID 0000.0001) // =======================================================
(PID.TID 0000.0001) 
(PID.TID 0000.0001) // =======================================================
(PID.TID 0000.0001) // Field hFacS at iteration          1
(PID.TID 0000.0001) // CMIN =          1.000000000000000E+00
(PID.TID 0000.0001) // CMAX =          1.000000000000000E+00
(PID.TID 0000.0001) // CINT =          0.000000000000000E+00
(PID.TID 0000.0001) // SYMBOLS (CMIN->CMAX): -abcdefghijklmnopqrstuvwxyz+
(PID.TID 0000.0001) //                  0.0: .
(PID.TID 0000.0001) // RANGE I (Lo:Hi:Step):(    -1:     3:     1)
(PID.TID 0000.0001) // RANGE J (Lo:Hi:Step):(     3:    -1:    -1)
(PID.TID 0000.0001) // RANGE K (Lo:Hi:Step):(   1:   1:   1)
(PID.TID 0000.0001) // =======================================================
(PID.TID 0000.0001) // =======================================================
(PID.TID 0000.0001) // END OF FIELD                                          =
(PID.TID 0000.0001) // =======================================================
(PID.TID 0000.0001) 
(PID.TID 0000.0001) GAD_INIT_FIXED: GAD_OlMinSize=  2  0  1
(PID.TID 0000.0001) 
(PID.TID 0000.0001) // ===================================
(PID.TID 0000.0001) // GAD parameters :
(PID.TID 0000.0001) // ===================================
(PID.TID 0000.0001) tempAdvScheme =   /* Temp. Horiz.Advection scheme selector */
(PID.TID 0000.0001)                       3
(PID.TID 0000.0001)     ;
(PID.TID 0000.0001) tempVertAdvScheme =   /* Temp. Vert. Advection scheme selector */
(PID.TID 0000.0001)                       3
(PID.TID 0000.0001)     ;
(PID.TID 0000.0001) tempMultiDimAdvec =   /* use Muti-Dim Advec method for Temp */
(PID.TID 0000.0001)                   F
(PID.TID 0000.0001)     ;
(PID.TID 0000.0001) tempSOM_Advection = /* use 2nd Order Moment Advection for Temp */
(PID.TID 0000.0001)                   F
(PID.TID 0000.0001)     ;
(PID.TID 0000.0001) AdamsBashforthGt = /* apply Adams-Bashforth extrapolation on Gt */
(PID.TID 0000.0001)                   T
(PID.TID 0000.0001)     ;
(PID.TID 0000.0001) AdamsBashforth_T = /* apply Adams-Bashforth extrapolation on Temp */
(PID.TID 0000.0001)                   F
(PID.TID 0000.0001)     ;
(PID.TID 0000.0001) saltAdvScheme =   /* Salt. Horiz.advection scheme selector */
(PID.TID 0000.0001)                       3
(PID.TID 0000.0001)     ;
(PID.TID 0000.0001) saltVertAdvScheme =   /* Salt. Vert. Advection scheme selector */
(PID.TID 0000.0001)                       3
(PID.TID 0000.0001)     ;
(PID.TID 0000.0001) saltMultiDimAdvec =   /* use Muti-Dim Advec method for Salt */
(PID.TID 0000.0001)                   F
(PID.TID 0000.0001)     ;
(PID.TID 0000.0001) saltSOM_Advection = /* use 2nd Order Moment Advection for Salt */
(PID.TID 0000.0001)                   F
(PID.TID 0000.0001)     ;
(PID.TID 0000.0001) AdamsBashforthGs = /* apply Adams-Bashforth extrapolation on Gs */
(PID.TID 0000.0001)                   F
(PID.TID 0000.0001)     ;
(PID.TID 0000.0001) AdamsBashforth_S = /* apply Adams-Bashforth extrapolation on Salt */
(PID.TID 0000.0001)                   F
(PID.TID 0000.0001)     ;
(PID.TID 0000.0001) // ===================================
(PID.TID 0000.0001) PTRACERS_INIT_FIXED: PTRACERS_SOM_Advection(   1) =     F
(PID.TID 0000.0001) PTRACERS_INIT_FIXED: PTRACERS_SOM_Advection(   2) =     F
(PID.TID 0000.0001) PTRACERS_INIT_FIXED: PTRACERS_SOM_Advection(   3) =     F
(PID.TID 0000.0001) PTRACERS_INIT_FIXED: PTRACERS_SOM_Advection(   4) =     F
(PID.TID 0000.0001) PTRACERS_INIT_FIXED: PTRACERS_SOM_Advection(   5) =     F
(PID.TID 0000.0001) PTRACERS_INIT_FIXED: PTRACERS_SOM_Advection(   6) =     F
(PID.TID 0000.0001) PTRACERS_INIT_FIXED: PTRACERS_SOM_Advection(   7) =     F
(PID.TID 0000.0001) PTRACERS_INIT_FIXED: PTRACERS_SOM_Advection(   8) =     F
(PID.TID 0000.0001) PTRACERS_INIT_FIXED: PTRACERS_SOM_Advection(   9) =     F
(PID.TID 0000.0001) PTRACERS_INIT_FIXED: PTRACERS_SOM_Advection(  10) =     F
(PID.TID 0000.0001) PTRACERS_INIT_FIXED: PTRACERS_SOM_Advection(  11) =     F
(PID.TID 0000.0001) PTRACERS_INIT_FIXED: PTRACERS_SOM_Advection(  12) =     F
(PID.TID 0000.0001) PTRACERS_INIT_FIXED: PTRACERS_SOM_Advection(  13) =     F
(PID.TID 0000.0001) PTRACERS_INIT_FIXED: PTRACERS_SOM_Advection(  14) =     F
(PID.TID 0000.0001) PTRACERS_INIT_FIXED: PTRACERS_SOM_Advection(  15) =     F
(PID.TID 0000.0001) PTRACERS_INIT_FIXED: PTRACERS_SOM_Advection(  16) =     F
(PID.TID 0000.0001) PTRACERS_INIT_FIXED: PTRACERS_SOM_Advection(  17) =     F
(PID.TID 0000.0001) PTRACERS_INIT_FIXED: PTRACERS_SOM_Advection(  18) =     F
(PID.TID 0000.0001) PTRACERS_INIT_FIXED: PTRACERS_SOM_Advection(  19) =     F
(PID.TID 0000.0001) PTRACERS_INIT_FIXED: PTRACERS_SOM_Advection(  20) =     F
(PID.TID 0000.0001) PTRACERS_INIT_FIXED: PTRACERS_SOM_Advection(  21) =     F
(PID.TID 0000.0001) PTRACERS_INIT_FIXED: PTRACERS_SOM_Advection(  22) =     F
(PID.TID 0000.0001) PTRACERS_INIT_FIXED: PTRACERS_SOM_Advection(  23) =     F
(PID.TID 0000.0001) PTRACERS_INIT_FIXED: PTRACERS_SOM_Advection(  24) =     F
(PID.TID 0000.0001) PTRACERS_INIT_FIXED: PTRACERS_SOM_Advection(  25) =     F
(PID.TID 0000.0001) PTRACERS_INIT_FIXED: PTRACERS_SOM_Advection(  26) =     F
(PID.TID 0000.0001) PTRACERS_INIT_FIXED: PTRACERS_SOM_Advection(  27) =     F
(PID.TID 0000.0001) PTRACERS_INIT_FIXED: PTRACERS_SOM_Advection(  28) =     F
(PID.TID 0000.0001) PTRACERS_INIT_FIXED: PTRACERS_SOM_Advection(  29) =     F
(PID.TID 0000.0001) PTRACERS_INIT_FIXED: PTRACERS_SOM_Advection(  30) =     F
(PID.TID 0000.0001) PTRACERS_INIT_FIXED: PTRACERS_SOM_Advection(  31) =     F
(PID.TID 0000.0001) PTRACERS_INIT_FIXED: PTRACERS_SOM_Advection(  32) =     F
(PID.TID 0000.0001) PTRACERS_INIT_FIXED: PTRACERS_SOM_Advection(  33) =     F
(PID.TID 0000.0001) PTRACERS_INIT_FIXED: PTRACERS_SOM_Advection(  34) =     F
(PID.TID 0000.0001) PTRACERS_INIT_FIXED: PTRACERS_SOM_Advection(  35) =     F
(PID.TID 0000.0001) PTRACERS_INIT_FIXED: PTRACERS_SOM_Advection(  36) =     F
(PID.TID 0000.0001) PTRACERS_INIT_FIXED: PTRACERS_SOM_Advection(  37) =     F
(PID.TID 0000.0001) PTRACERS_INIT_FIXED: PTRACERS_SOM_Advection(  38) =     F
(PID.TID 0000.0001) PTRACERS_INIT_FIXED: PTRACERS_SOM_Advection(  39) =     F
(PID.TID 0000.0001) PTRACERS_INIT_FIXED: PTRACERS_SOM_Advection(  40) =     F
(PID.TID 0000.0001) PTRACERS_INIT_FIXED: PTRACERS_SOM_Advection(  41) =     F
(PID.TID 0000.0001) PTRACERS_INIT_FIXED: PTRACERS_SOM_Advection(  42) =     F
(PID.TID 0000.0001) PTRACERS_INIT_FIXED: PTRACERS_SOM_Advection(  43) =     F
(PID.TID 0000.0001) PTRACERS_INIT_FIXED: PTRACERS_SOM_Advection(  44) =     F
(PID.TID 0000.0001) PTRACERS_INIT_FIXED: PTRACERS_SOM_Advection(  45) =     F
(PID.TID 0000.0001) PTRACERS_INIT_FIXED: PTRACERS_SOM_Advection(  46) =     F
(PID.TID 0000.0001) PTRACERS_INIT_FIXED: PTRACERS_SOM_Advection(  47) =     F
(PID.TID 0000.0001) PTRACERS_INIT_FIXED: PTRACERS_SOM_Advection(  48) =     F
(PID.TID 0000.0001) PTRACERS_INIT_FIXED: PTRACERS_SOM_Advection(  49) =     F
(PID.TID 0000.0001) PTRACERS_INIT_FIXED: PTRACERS_SOM_Advection(  50) =     F
(PID.TID 0000.0001) PTRACERS_INIT_FIXED: PTRACERS_SOM_Advection(  51) =     F
(PID.TID 0000.0001) PTRACERS_INIT_FIXED: PTRACERS_SOM_Advection(  52) =     F
(PID.TID 0000.0001) PTRACERS_INIT_FIXED: PTRACERS_SOM_Advection(  53) =     F
(PID.TID 0000.0001) PTRACERS_INIT_FIXED: PTRACERS_SOM_Advection(  54) =     F
(PID.TID 0000.0001) PTRACERS_INIT_FIXED: PTRACERS_SOM_Advection(  55) =     F
(PID.TID 0000.0001) PTRACERS_INIT_FIXED: PTRACERS_SOM_Advection(  56) =     F
(PID.TID 0000.0001) PTRACERS_INIT_FIXED: PTRACERS_SOM_Advection(  57) =     F
(PID.TID 0000.0001) PTRACERS_INIT_FIXED: PTRACERS_SOM_Advection(  58) =     F
(PID.TID 0000.0001) PTRACERS_INIT_FIXED: PTRACERS_SOM_Advection(  59) =     F
(PID.TID 0000.0001) PTRACERS_INIT_FIXED: PTRACERS_SOM_Advection(  60) =     F
(PID.TID 0000.0001) PTRACERS_INIT_FIXED: PTRACERS_SOM_Advection(  61) =     F
(PID.TID 0000.0001) PTRACERS_INIT_FIXED: PTRACERS_SOM_Advection(  62) =     F
(PID.TID 0000.0001) PTRACERS_INIT_FIXED: PTRACERS_SOM_Advection(  63) =     F
(PID.TID 0000.0001) PTRACERS_INIT_FIXED: PTRACERS_SOM_Advection(  64) =     F
(PID.TID 0000.0001) PTRACERS_INIT_FIXED: PTRACERS_SOM_Advection(  65) =     F
(PID.TID 0000.0001) PTRACERS_INIT_FIXED: PTRACERS_SOM_Advection(  66) =     F
(PID.TID 0000.0001) PTRACERS_INIT_FIXED: PTRACERS_SOM_Advection(  67) =     F
(PID.TID 0000.0001) PTRACERS_INIT_FIXED: PTRACERS_SOM_Advection(  68) =     F
(PID.TID 0000.0001) PTRACERS_INIT_FIXED: PTRACERS_SOM_Advection(  69) =     F
(PID.TID 0000.0001) PTRACERS_INIT_FIXED: PTRACERS_SOM_Advection(  70) =     F
(PID.TID 0000.0001) PTRACERS_INIT_FIXED: PTRACERS_SOM_Advection(  71) =     F
(PID.TID 0000.0001) PTRACERS_INIT_FIXED: PTRACERS_SOM_Advection(  72) =     F
(PID.TID 0000.0001) PTRACERS_INIT_FIXED: PTRACERS_SOM_Advection(  73) =     F
(PID.TID 0000.0001) PTRACERS_INIT_FIXED: PTRACERS_SOM_Advection(  74) =     F
(PID.TID 0000.0001) PTRACERS_INIT_FIXED: PTRACERS_SOM_Advection(  75) =     F
(PID.TID 0000.0001) PTRACERS_INIT_FIXED: PTRACERS_SOM_Advection(  76) =     F
(PID.TID 0000.0001) PTRACERS_INIT_FIXED: PTRACERS_SOM_Advection(  77) =     F
(PID.TID 0000.0001) PTRACERS_INIT_FIXED: PTRACERS_SOM_Advection(  78) =     F
(PID.TID 0000.0001) PTRACERS_INIT_FIXED: PTRACERS_SOM_Advection(  79) =     F
(PID.TID 0000.0001) PTRACERS_INIT_FIXED: PTRACERS_SOM_Advection(  80) =     F
(PID.TID 0000.0001) PTRACERS_INIT_FIXED: PTRACERS_SOM_Advection(  81) =     F
(PID.TID 0000.0001) PTRACERS_INIT_FIXED: PTRACERS_SOM_Advection(  82) =     F
(PID.TID 0000.0001) PTRACERS_INIT_FIXED: PTRACERS_SOM_Advection(  83) =     F
(PID.TID 0000.0001) PTRACERS_INIT_FIXED: PTRACERS_SOM_Advection(  84) =     F
(PID.TID 0000.0001) PTRACERS_INIT_FIXED: PTRACERS_SOM_Advection(  85) =     F
(PID.TID 0000.0001) PTRACERS_INIT_FIXED: PTRACERS_SOM_Advection(  86) =     F
(PID.TID 0000.0001) PTRACERS_INIT_FIXED: PTRACERS_SOM_Advection(  87) =     F
(PID.TID 0000.0001) PTRACERS_INIT_FIXED: PTRACERS_SOM_Advection(  88) =     F
(PID.TID 0000.0001) PTRACERS_INIT_FIXED: PTRACERS_SOM_Advection(  89) =     F
(PID.TID 0000.0001) PTRACERS_INIT_FIXED: PTRACERS_SOM_Advection(  90) =     F
(PID.TID 0000.0001) PTRACERS_INIT_FIXED: PTRACERS_SOM_Advection(  91) =     F
(PID.TID 0000.0001) PTRACERS_INIT_FIXED: PTRACERS_SOM_Advection(  92) =     F
(PID.TID 0000.0001) PTRACERS_INIT_FIXED: PTRACERS_SOM_Advection(  93) =     F
(PID.TID 0000.0001) PTRACERS_INIT_FIXED: PTRACERS_SOM_Advection(  94) =     F
(PID.TID 0000.0001) PTRACERS_INIT_FIXED: PTRACERS_SOM_Advection(  95) =     F
(PID.TID 0000.0001) PTRACERS_INIT_FIXED: PTRACERS_SOM_Advection(  96) =     F
(PID.TID 0000.0001) PTRACERS_INIT_FIXED: PTRACERS_SOM_Advection(  97) =     F
(PID.TID 0000.0001) PTRACERS_INIT_FIXED: PTRACERS_SOM_Advection(  98) =     F
(PID.TID 0000.0001) PTRACERS_INIT_FIXED: PTRACERS_SOM_Advection(  99) =     F
(PID.TID 0000.0001) PTRACERS_INIT_FIXED: GAD_OlMinSize=  2  0  1
(PID.TID 0000.0001) // =======================================================
(PID.TID 0000.0001) // Darwin loading parameters
(PID.TID 0000.0001) // =======================================================
(PID.TID 0000.0001)  WAVEBANDS_INIT_FIXED: darwin_Sdom =   1.400000000000E-02
(PID.TID 0000.0001)  WAVEBANDS_INIT_FIXED: nl450 =   3
(PID.TID 0000.0001)  WAVEBANDS_INIT_FIXED: aCDOM diag ilam =   3, lambda =  450
(PID.TID 0000.0001) %MON fCori_max                    =  -4.3855676645210E-05
(PID.TID 0000.0001) %MON fCori_min                    =  -4.3855676645210E-05
(PID.TID 0000.0001) %MON fCori_mean                   =  -4.3855676645210E-05
(PID.TID 0000.0001) %MON fCori_sd                     =   0.0000000000000E+00
(PID.TID 0000.0001) %MON fCoriG_max                   =  -4.5067801836625E-05
(PID.TID 0000.0001) %MON fCoriG_min                   =  -4.5067801836625E-05
(PID.TID 0000.0001) %MON fCoriG_mean                  =  -4.5067801836625E-05
(PID.TID 0000.0001) %MON fCoriG_sd                    =   0.0000000000000E+00
(PID.TID 0000.0001) %MON fCoriCos_max                 =   1.3909243610207E-04
(PID.TID 0000.0001) %MON fCoriCos_min                 =   1.3909243610207E-04
(PID.TID 0000.0001) %MON fCoriCos_mean                =   1.3909243610207E-04
(PID.TID 0000.0001) %MON fCoriCos_sd                  =   0.0000000000000E+00
(PID.TID 0000.0001) INI_CG2D: CG2D normalisation factor =  2.7288038648017932E-04
(PID.TID 0000.0001) 
(PID.TID 0000.0001) // =======================================================
(PID.TID 0000.0001) // Model configuration
(PID.TID 0000.0001) // =======================================================
(PID.TID 0000.0001) //
(PID.TID 0000.0001) // "Physical" paramters ( PARM01 in namelist )
(PID.TID 0000.0001) //
(PID.TID 0000.0001) buoyancyRelation = /* Type of relation to get Buoyancy */
(PID.TID 0000.0001)               'OCEANIC'
(PID.TID 0000.0001)     ;
(PID.TID 0000.0001) fluidIsAir   =  /* fluid major constituent is Air */
(PID.TID 0000.0001)                   F
(PID.TID 0000.0001)     ;
(PID.TID 0000.0001) fluidIsWater =  /* fluid major constituent is Water */
(PID.TID 0000.0001)                   T
(PID.TID 0000.0001)     ;
(PID.TID 0000.0001) usingPCoords =  /* use p (or p*) vertical coordinate */
(PID.TID 0000.0001)                   F
(PID.TID 0000.0001)     ;
(PID.TID 0000.0001) usingZCoords =  /* use z (or z*) vertical coordinate */
(PID.TID 0000.0001)                   T
(PID.TID 0000.0001)     ;
(PID.TID 0000.0001) tRef =   /* Reference temperature profile ( oC or K ) */
(PID.TID 0000.0001)                 2.650000000000000E+01,      /* K =  1 */
(PID.TID 0000.0001)                 2.610000000000000E+01,      /* K =  2 */
(PID.TID 0000.0001)                 2.600000000000000E+01,      /* K =  3 */
(PID.TID 0000.0001)                 2.550000000000000E+01,      /* K =  4 */
(PID.TID 0000.0001)                 2.540000000000000E+01,      /* K =  5 */
(PID.TID 0000.0001)                 2.490000000000000E+01,      /* K =  6 */
(PID.TID 0000.0001)                 2.450000000000000E+01,      /* K =  7 */
(PID.TID 0000.0001)                 2.400000000000000E+01,      /* K =  8 */
(PID.TID 0000.0001)                 2.370000000000000E+01,      /* K =  9 */
(PID.TID 0000.0001)                 2.330000000000000E+01,      /* K = 10 */
(PID.TID 0000.0001)                 2.310000000000000E+01,      /* K = 11 */
(PID.TID 0000.0001)                 2.280000000000000E+01,      /* K = 12 */
(PID.TID 0000.0001)                 2.250000000000000E+01,      /* K = 13 */
(PID.TID 0000.0001)                 2.210000000000000E+01,      /* K = 14 */
(PID.TID 0000.0001)                 2.160000000000000E+01,      /* K = 15 */
(PID.TID 0000.0001)                 2.060000000000000E+01,      /* K = 16 */
(PID.TID 0000.0001)                 1.950000000000000E+01,      /* K = 17 */
(PID.TID 0000.0001)                 1.840000000000000E+01,      /* K = 18 */
(PID.TID 0000.0001)                 1.730000000000000E+01,      /* K = 19 */
(PID.TID 0000.0001)                 1.660000000000000E+01,      /* K = 20 */
(PID.TID 0000.0001)                 1.550000000000000E+01,      /* K = 21 */
(PID.TID 0000.0001)                 1.460000000000000E+01,      /* K = 22 */
(PID.TID 0000.0001)                 1.380000000000000E+01,      /* K = 23 */
(PID.TID 0000.0001)                 1.310000000000000E+01,      /* K = 24 */
(PID.TID 0000.0001)                 1.160000000000000E+01,      /* K = 25 */
(PID.TID 0000.0001)                 1.010000000000000E+01,      /* K = 26 */
(PID.TID 0000.0001)                 7.700000000000000E+00,      /* K = 27 */
(PID.TID 0000.0001)                 5.300000000000000E+00,      /* K = 28 */
(PID.TID 0000.0001)                 4.100000000000000E+00,      /* K = 29 */
(PID.TID 0000.0001)     2 @  3.700000000000000E+00,             /* K = 30: 31 */
(PID.TID 0000.0001)                 3.400000000000000E+00,      /* K = 32 */
(PID.TID 0000.0001)                 3.000000000000000E+00,      /* K = 33 */
(PID.TID 0000.0001)                 2.800000000000000E+00,      /* K = 34 */
(PID.TID 0000.0001)                 2.600000000000000E+00       /* K = 35 */
(PID.TID 0000.0001)     ;
(PID.TID 0000.0001) sRef =   /* Reference salinity profile ( psu ) */
(PID.TID 0000.0001)    35 @  3.500000000000000E+01              /* K =  1: 35 */
(PID.TID 0000.0001)     ;
(PID.TID 0000.0001) viscAh  =   /* Lateral eddy viscosity ( m^2/s ) */
(PID.TID 0000.0001)                 0.000000000000000E+00
(PID.TID 0000.0001)     ;
(PID.TID 0000.0001) viscAhMax = /* Maximum lateral eddy viscosity ( m^2/s ) */
(PID.TID 0000.0001)                 1.000000000000000E+21
(PID.TID 0000.0001)     ;
(PID.TID 0000.0001) viscAhGrid = /* Grid dependent lateral eddy viscosity ( non-dim. ) */
(PID.TID 0000.0001)                 0.000000000000000E+00
(PID.TID 0000.0001)     ;
(PID.TID 0000.0001) useFullLeith = /* Use Full Form of Leith Viscosity on/off flag*/
(PID.TID 0000.0001)                   F
(PID.TID 0000.0001)     ;
(PID.TID 0000.0001) useStrainTensionVisc= /* Use StrainTension Form of Viscous Operator flag*/
(PID.TID 0000.0001)                   F
(PID.TID 0000.0001)     ;
(PID.TID 0000.0001) useAreaViscLength = /* Use area for visc length instead of geom. mean*/
(PID.TID 0000.0001)                   F
(PID.TID 0000.0001)     ;
(PID.TID 0000.0001) viscC2leith = /* Leith harmonic visc. factor (on grad(vort),non-dim.) */
(PID.TID 0000.0001)                 0.000000000000000E+00
(PID.TID 0000.0001)     ;
(PID.TID 0000.0001) viscC2leithD = /* Leith harmonic viscosity factor (on grad(div),non-dim.)*/
(PID.TID 0000.0001)                 0.000000000000000E+00
(PID.TID 0000.0001)     ;
(PID.TID 0000.0001) viscC2smag = /* Smagorinsky harmonic viscosity factor (non-dim.) */
(PID.TID 0000.0001)                 0.000000000000000E+00
(PID.TID 0000.0001)     ;
(PID.TID 0000.0001) viscA4  =   /* Lateral biharmonic viscosity ( m^4/s ) */
(PID.TID 0000.0001)                 0.000000000000000E+00
(PID.TID 0000.0001)     ;
(PID.TID 0000.0001) viscA4Max = /* Maximum biharmonic viscosity ( m^2/s ) */
(PID.TID 0000.0001)                 1.000000000000000E+21
(PID.TID 0000.0001)     ;
(PID.TID 0000.0001) viscA4Grid = /* Grid dependent biharmonic viscosity ( non-dim. ) */
(PID.TID 0000.0001)                 0.000000000000000E+00
(PID.TID 0000.0001)     ;
(PID.TID 0000.0001) viscC4leith = /* Leith biharm viscosity factor (on grad(vort), non-dim.)*/
(PID.TID 0000.0001)                 0.000000000000000E+00
(PID.TID 0000.0001)     ;
(PID.TID 0000.0001) viscC4leithD = /* Leith biharm viscosity factor (on grad(div), non-dim.) */
(PID.TID 0000.0001)                 0.000000000000000E+00
(PID.TID 0000.0001)     ;
(PID.TID 0000.0001) viscC4Smag = /* Smagorinsky biharm viscosity factor (non-dim) */
(PID.TID 0000.0001)                 0.000000000000000E+00
(PID.TID 0000.0001)     ;
(PID.TID 0000.0001) no_slip_sides =  /* Viscous BCs: No-slip sides */
(PID.TID 0000.0001)                   F
(PID.TID 0000.0001)     ;
(PID.TID 0000.0001) sideDragFactor = /* side-drag scaling factor (non-dim) */
(PID.TID 0000.0001)                 2.000000000000000E+00
(PID.TID 0000.0001)     ;
(PID.TID 0000.0001) viscArNr = /* vertical profile of vertical viscosity ( m^2/s )*/
(PID.TID 0000.0001)    35 @  0.000000000000000E+00              /* K =  1: 35 */
(PID.TID 0000.0001)     ;
(PID.TID 0000.0001) no_slip_bottom =  /* Viscous BCs: No-slip bottom */
(PID.TID 0000.0001)                   T
(PID.TID 0000.0001)     ;
(PID.TID 0000.0001) bottomDragLinear = /* linear bottom-drag coefficient ( m/s ) */
(PID.TID 0000.0001)                 0.000000000000000E+00
(PID.TID 0000.0001)     ;
(PID.TID 0000.0001) bottomDragQuadratic = /* quadratic bottom-drag coefficient (-) */
(PID.TID 0000.0001)                 0.000000000000000E+00
(PID.TID 0000.0001)     ;
(PID.TID 0000.0001) diffKhT =   /* Laplacian diffusion of heat laterally ( m^2/s ) */
(PID.TID 0000.0001)                 1.000000000000000E+02
(PID.TID 0000.0001)     ;
(PID.TID 0000.0001) diffK4T =   /* Biharmonic diffusion of heat laterally ( m^4/s ) */
(PID.TID 0000.0001)                 0.000000000000000E+00
(PID.TID 0000.0001)     ;
(PID.TID 0000.0001) diffKhS =   /* Laplacian diffusion of salt laterally ( m^2/s ) */
(PID.TID 0000.0001)                 0.000000000000000E+00
(PID.TID 0000.0001)     ;
(PID.TID 0000.0001) diffK4S =   /* Biharmonic diffusion of salt laterally ( m^4/s ) */
(PID.TID 0000.0001)                 0.000000000000000E+00
(PID.TID 0000.0001)     ;
(PID.TID 0000.0001) diffKrNrT = /* vertical profile of vertical diffusion of Temp ( m^2/s )*/
(PID.TID 0000.0001)    35 @  1.000000000000000E-04              /* K =  1: 35 */
(PID.TID 0000.0001)     ;
(PID.TID 0000.0001) diffKrNrS = /* vertical profile of vertical diffusion of Salt ( m^2/s )*/
(PID.TID 0000.0001)    35 @  0.000000000000000E+00              /* K =  1: 35 */
(PID.TID 0000.0001)     ;
(PID.TID 0000.0001) diffKrBL79surf = /* Surface diffusion for Bryan and Lewis 79 ( m^2/s ) */
(PID.TID 0000.0001)                 0.000000000000000E+00
(PID.TID 0000.0001)     ;
(PID.TID 0000.0001) diffKrBL79deep = /* Deep diffusion for Bryan and Lewis 1979 ( m^2/s ) */
(PID.TID 0000.0001)                 0.000000000000000E+00
(PID.TID 0000.0001)     ;
(PID.TID 0000.0001) diffKrBL79scl = /* Depth scale for Bryan and Lewis 1979 ( m ) */
(PID.TID 0000.0001)                 2.000000000000000E+02
(PID.TID 0000.0001)     ;
(PID.TID 0000.0001) diffKrBL79Ho = /* Turning depth for Bryan and Lewis 1979 ( m ) */
(PID.TID 0000.0001)                -2.000000000000000E+03
(PID.TID 0000.0001)     ;
(PID.TID 0000.0001) ivdc_kappa = /* Implicit Vertical Diffusivity for Convection ( m^2/s) */
(PID.TID 0000.0001)                 0.000000000000000E+00
(PID.TID 0000.0001)     ;
(PID.TID 0000.0001) hMixCriteria=  /* Criteria for mixed-layer diagnostic */
(PID.TID 0000.0001)                -8.000000000000000E-01
(PID.TID 0000.0001)     ;
(PID.TID 0000.0001) dRhoSmall =  /* Parameter for mixed-layer diagnostic */
(PID.TID 0000.0001)                 1.000000000000000E-06
(PID.TID 0000.0001)     ;
(PID.TID 0000.0001) hMixSmooth=  /* Smoothing parameter for mixed-layer diagnostic */
(PID.TID 0000.0001)                 0.000000000000000E+00
(PID.TID 0000.0001)     ;
(PID.TID 0000.0001) eosType =  /* Type of Equation of State */
(PID.TID 0000.0001)               'JMD95Z'
(PID.TID 0000.0001)     ;
(PID.TID 0000.0001) tAlpha =   /* Linear EOS thermal expansion coefficient ( 1/oC ) */
(PID.TID 0000.0001)                 2.000000000000000E-04
(PID.TID 0000.0001)     ;
(PID.TID 0000.0001) sBeta =   /* Linear EOS haline contraction coefficient ( 1/psu ) */
(PID.TID 0000.0001)                 7.400000000000000E-04
(PID.TID 0000.0001)     ;
(PID.TID 0000.0001) rhonil =   /* Reference density ( kg/m^3 ) */
(PID.TID 0000.0001)                 9.998000000000000E+02
(PID.TID 0000.0001)     ;
(PID.TID 0000.0001) rhoConst =   /* Reference density ( kg/m^3 ) */
(PID.TID 0000.0001)                 9.998000000000000E+02
(PID.TID 0000.0001)     ;
(PID.TID 0000.0001) rhoFacC = /* normalized Reference density @ cell-Center (-) */
(PID.TID 0000.0001)    35 @  1.000000000000000E+00              /* K =  1: 35 */
(PID.TID 0000.0001)     ;
(PID.TID 0000.0001) rhoFacF = /* normalized Reference density @ W-Interface (-) */
(PID.TID 0000.0001)    36 @  1.000000000000000E+00              /* K =  1: 36 */
(PID.TID 0000.0001)     ;
(PID.TID 0000.0001) rhoConstFresh =   /* Reference density ( kg/m^3 ) */
(PID.TID 0000.0001)                 9.998000000000000E+02
(PID.TID 0000.0001)     ;
(PID.TID 0000.0001) gravity =   /* Gravitational acceleration ( m/s^2 ) */
(PID.TID 0000.0001)                 9.810000000000000E+00
(PID.TID 0000.0001)     ;
(PID.TID 0000.0001) gBaro =   /* Barotropic gravity ( m/s^2 ) */
(PID.TID 0000.0001)                 9.810000000000000E+00
(PID.TID 0000.0001)     ;
(PID.TID 0000.0001) rotationPeriod =   /* Rotation Period ( s ) */
(PID.TID 0000.0001)                 8.616400000000000E+04
(PID.TID 0000.0001)     ;
(PID.TID 0000.0001) omega =   /* Angular velocity ( rad/s ) */
(PID.TID 0000.0001)                 7.292123516990375E-05
(PID.TID 0000.0001)     ;
(PID.TID 0000.0001) f0 =   /* Reference coriolis parameter ( 1/s ) */
(PID.TID 0000.0001)                 1.000000000000000E-04
(PID.TID 0000.0001)     ;
(PID.TID 0000.0001) beta =   /* Beta ( 1/(m.s) ) */
(PID.TID 0000.0001)                 9.999999999999999E-12
(PID.TID 0000.0001)     ;
(PID.TID 0000.0001) fPrime =   /* Second coriolis parameter ( 1/s ) */
(PID.TID 0000.0001)                 0.000000000000000E+00
(PID.TID 0000.0001)     ;
(PID.TID 0000.0001) rigidLid =   /* Rigid lid on/off flag */
(PID.TID 0000.0001)                   T
(PID.TID 0000.0001)     ;
(PID.TID 0000.0001) implicitFreeSurface =   /* Implicit free surface on/off flag */
(PID.TID 0000.0001)                   F
(PID.TID 0000.0001)     ;
(PID.TID 0000.0001) freeSurfFac =   /* Implicit free surface factor */
(PID.TID 0000.0001)                 0.000000000000000E+00
(PID.TID 0000.0001)     ;
(PID.TID 0000.0001) implicSurfPress =  /* Surface Pressure implicit factor (0-1)*/
(PID.TID 0000.0001)                 1.000000000000000E+00
(PID.TID 0000.0001)     ;
(PID.TID 0000.0001) implicDiv2Dflow =  /* Barot. Flow Div. implicit factor (0-1)*/
(PID.TID 0000.0001)                 1.000000000000000E+00
(PID.TID 0000.0001)     ;
(PID.TID 0000.0001) exactConserv =  /* Exact Volume Conservation on/off flag*/
(PID.TID 0000.0001)                   F
(PID.TID 0000.0001)     ;
(PID.TID 0000.0001) linFSConserveTr = /* Tracer correction for Lin Free Surface on/off flag*/
(PID.TID 0000.0001)                   F
(PID.TID 0000.0001)     ;
(PID.TID 0000.0001) uniformLin_PhiSurf = /* use uniform Bo_surf on/off flag*/
(PID.TID 0000.0001)                   T
(PID.TID 0000.0001)     ;
(PID.TID 0000.0001) hFacMin =   /* minimum partial cell factor (hFac) */
(PID.TID 0000.0001)                 1.000000000000000E+00
(PID.TID 0000.0001)     ;
(PID.TID 0000.0001) hFacMinDr = /* minimum partial cell thickness ( m) */
(PID.TID 0000.0001)                 1.000000000000000E+00
(PID.TID 0000.0001)     ;
(PID.TID 0000.0001) nonlinFreeSurf = /* Non-linear Free Surf. options (-1,0,1,2,3)*/
(PID.TID 0000.0001)                       0
(PID.TID 0000.0001)      -1,0= Off ; 1,2,3= On, 2=+rescale gU,gV, 3=+update cg2d solv.
(PID.TID 0000.0001)     ;
(PID.TID 0000.0001) hFacInf =   /* lower threshold for hFac (nonlinFreeSurf only)*/
(PID.TID 0000.0001)                 2.000000000000000E-01
(PID.TID 0000.0001)     ;
(PID.TID 0000.0001) hFacSup =   /* upper threshold for hFac (nonlinFreeSurf only)*/
(PID.TID 0000.0001)                 2.000000000000000E+00
(PID.TID 0000.0001)     ;
(PID.TID 0000.0001) select_rStar = /* r* Vertical coord. options (=0 r coord.; >0 uses r*)*/
(PID.TID 0000.0001)                       0
(PID.TID 0000.0001)     ;
(PID.TID 0000.0001) selectAddFluid = /* option for mass source/sink of fluid (=0: off) */
(PID.TID 0000.0001)                       0
(PID.TID 0000.0001)     ;
(PID.TID 0000.0001) useRealFreshWaterFlux = /* Real Fresh Water Flux on/off flag*/
(PID.TID 0000.0001)                   F
(PID.TID 0000.0001)     ;
(PID.TID 0000.0001) temp_EvPrRn = /* Temp. of Evap/Prec/R (UNSET=use local T)(oC)*/
(PID.TID 0000.0001)                 1.234567000000000E+05
(PID.TID 0000.0001)     ;
(PID.TID 0000.0001) salt_EvPrRn = /* Salin. of Evap/Prec/R (UNSET=use local S)(psu)*/
(PID.TID 0000.0001)                 0.000000000000000E+00
(PID.TID 0000.0001)     ;
(PID.TID 0000.0001) temp_addMass = /* Temp. of addMass array (UNSET=use local T)(oC)*/
(PID.TID 0000.0001)                 1.234567000000000E+05
(PID.TID 0000.0001)     ;
(PID.TID 0000.0001) salt_addMass = /* Salin. of addMass array (UNSET=use local S)(psu)*/
(PID.TID 0000.0001)                 0.000000000000000E+00
(PID.TID 0000.0001)     ;
(PID.TID 0000.0001) convertFW2Salt = /* convert F.W. Flux to Salt Flux (-1=use local S)(psu)*/
(PID.TID 0000.0001)                 3.500000000000000E+01
(PID.TID 0000.0001)     ;
(PID.TID 0000.0001) use3Dsolver = /* use 3-D pressure solver on/off flag */
(PID.TID 0000.0001)                   F
(PID.TID 0000.0001)     ;
(PID.TID 0000.0001) nonHydrostatic =  /* Non-Hydrostatic on/off flag */
(PID.TID 0000.0001)                   F
(PID.TID 0000.0001)     ;
(PID.TID 0000.0001) nh_Am2 = /* Non-Hydrostatic terms scaling factor */
(PID.TID 0000.0001)                 1.000000000000000E+00
(PID.TID 0000.0001)     ;
(PID.TID 0000.0001) implicitNHPress = /* Non-Hyd Pressure implicit factor (0-1)*/
(PID.TID 0000.0001)                 1.000000000000000E+00
(PID.TID 0000.0001)     ;
(PID.TID 0000.0001) selectNHfreeSurf = /* Non-Hyd (free-)Surface option */
(PID.TID 0000.0001)                       0
(PID.TID 0000.0001)     ;
(PID.TID 0000.0001) quasiHydrostatic = /* Quasi-Hydrostatic on/off flag */
(PID.TID 0000.0001)                   F
(PID.TID 0000.0001)     ;
(PID.TID 0000.0001) momStepping =  /* Momentum equation on/off flag */
(PID.TID 0000.0001)                   F
(PID.TID 0000.0001)     ;
(PID.TID 0000.0001) vectorInvariantMomentum= /* Vector-Invariant Momentum on/off */
(PID.TID 0000.0001)                   F
(PID.TID 0000.0001)     ;
(PID.TID 0000.0001) momAdvection =  /* Momentum advection on/off flag */
(PID.TID 0000.0001)                   F
(PID.TID 0000.0001)     ;
(PID.TID 0000.0001) momViscosity =  /* Momentum viscosity on/off flag */
(PID.TID 0000.0001)                   F
(PID.TID 0000.0001)     ;
(PID.TID 0000.0001) momImplVertAdv= /* Momentum implicit vert. advection on/off*/
(PID.TID 0000.0001)                   F
(PID.TID 0000.0001)     ;
(PID.TID 0000.0001) implicitViscosity = /* Implicit viscosity on/off flag */
(PID.TID 0000.0001)                   F
(PID.TID 0000.0001)     ;
(PID.TID 0000.0001) metricTerms =  /* metric-Terms on/off flag */
(PID.TID 0000.0001)                   T
(PID.TID 0000.0001)     ;
(PID.TID 0000.0001) useNHMTerms = /* Non-Hydrostatic Metric-Terms on/off */
(PID.TID 0000.0001)                   F
(PID.TID 0000.0001)     ;
(PID.TID 0000.0001) selectCoriMap = /* Coriolis Map options (0,1,2,3)*/
(PID.TID 0000.0001)                       2
(PID.TID 0000.0001)     0= f-Plane ; 1= Beta-Plane ; 2= Spherical ; 3= read from file
(PID.TID 0000.0001)     ;
(PID.TID 0000.0001) use3dCoriolis = /* 3-D Coriolis on/off flag */
(PID.TID 0000.0001)                   F
(PID.TID 0000.0001)     ;
(PID.TID 0000.0001) useCoriolis =  /* Coriolis on/off flag */
(PID.TID 0000.0001)                   F
(PID.TID 0000.0001)     ;
(PID.TID 0000.0001) useCDscheme =  /* CD scheme on/off flag */
(PID.TID 0000.0001)                   F
(PID.TID 0000.0001)     ;
(PID.TID 0000.0001) useJamartWetPoints= /* Coriolis WetPoints method flag */
(PID.TID 0000.0001)                   F
(PID.TID 0000.0001)     ;
(PID.TID 0000.0001) useJamartMomAdv= /* V.I. Non-linear terms Jamart flag */
(PID.TID 0000.0001)                   F
(PID.TID 0000.0001)     ;
(PID.TID 0000.0001) useAbsVorticity= /* Work with f+zeta in Coriolis */
(PID.TID 0000.0001)                   F
(PID.TID 0000.0001)     ;
(PID.TID 0000.0001) selectVortScheme= /* Scheme selector for Vorticity-Term */
(PID.TID 0000.0001)               123456789
(PID.TID 0000.0001)    = 0 : enstrophy (Shallow-Water Eq.) conserving scheme by Sadourny, JAS 75
(PID.TID 0000.0001)    = 1 : same as 0 with modified hFac
(PID.TID 0000.0001)    = 2 : energy conserving scheme (used by Sadourny in JAS 75 paper)
(PID.TID 0000.0001)    = 3 : energy (general) and enstrophy (2D, nonDiv.) conserving scheme
(PID.TID 0000.0001)          from Sadourny (Burridge & Haseler, ECMWF Rep.4, 1977)
(PID.TID 0000.0001)     ;
(PID.TID 0000.0001) upwindVorticity= /* Upwind bias vorticity flag */
(PID.TID 0000.0001)                   F
(PID.TID 0000.0001)     ;
(PID.TID 0000.0001) highOrderVorticity= /* High order interp. of vort. flag */
(PID.TID 0000.0001)                   F
(PID.TID 0000.0001)     ;
(PID.TID 0000.0001) upwindShear= /* Upwind vertical Shear advection flag */
(PID.TID 0000.0001)                   F
(PID.TID 0000.0001)     ;
(PID.TID 0000.0001) selectKEscheme= /* Kinetic Energy scheme selector */
(PID.TID 0000.0001)                       0
(PID.TID 0000.0001)     ;
(PID.TID 0000.0001) momForcing =  /* Momentum forcing on/off flag */
(PID.TID 0000.0001)                   F
(PID.TID 0000.0001)     ;
(PID.TID 0000.0001) momPressureForcing =  /* Momentum pressure term on/off flag */
(PID.TID 0000.0001)                   F
(PID.TID 0000.0001)     ;
(PID.TID 0000.0001) implicitIntGravWave= /* Implicit Internal Gravity Wave flag */
(PID.TID 0000.0001)                   F
(PID.TID 0000.0001)     ;
(PID.TID 0000.0001) staggerTimeStep =   /* Stagger time stepping on/off flag */
(PID.TID 0000.0001)                   F
(PID.TID 0000.0001)     ;
(PID.TID 0000.0001) multiDimAdvection =   /* enable/disable Multi-Dim Advection */
(PID.TID 0000.0001)                   T
(PID.TID 0000.0001)     ;
(PID.TID 0000.0001) useMultiDimAdvec =   /* Multi-Dim Advection is/is-not used */
(PID.TID 0000.0001)                   T
(PID.TID 0000.0001)     ;
(PID.TID 0000.0001) implicitDiffusion = /* Implicit Diffusion on/off flag */
(PID.TID 0000.0001)                   T
(PID.TID 0000.0001)     ;
(PID.TID 0000.0001) tempStepping =  /* Temperature equation on/off flag */
(PID.TID 0000.0001)                   T
(PID.TID 0000.0001)     ;
(PID.TID 0000.0001) tempAdvection=  /* Temperature advection on/off flag */
(PID.TID 0000.0001)                   T
(PID.TID 0000.0001)     ;
(PID.TID 0000.0001) tempImplVertAdv = /* Temp. implicit vert. advection on/off */
(PID.TID 0000.0001)                   F
(PID.TID 0000.0001)     ;
(PID.TID 0000.0001) tempForcing  =  /* Temperature forcing on/off flag */
(PID.TID 0000.0001)                   T
(PID.TID 0000.0001)     ;
(PID.TID 0000.0001) tempIsActiveTr = /* Temp. is a dynamically Active Tracer */
(PID.TID 0000.0001)                   F
(PID.TID 0000.0001)     ;
(PID.TID 0000.0001) saltStepping =  /* Salinity equation on/off flag */
(PID.TID 0000.0001)                   F
(PID.TID 0000.0001)     ;
(PID.TID 0000.0001) saltAdvection=  /* Salinity advection on/off flag */
(PID.TID 0000.0001)                   F
(PID.TID 0000.0001)     ;
(PID.TID 0000.0001) saltImplVertAdv = /* Sali. implicit vert. advection on/off */
(PID.TID 0000.0001)                   F
(PID.TID 0000.0001)     ;
(PID.TID 0000.0001) saltForcing  =  /* Salinity forcing on/off flag */
(PID.TID 0000.0001)                   F
(PID.TID 0000.0001)     ;
(PID.TID 0000.0001) saltIsActiveTr = /* Salt  is a dynamically Active Tracer */
(PID.TID 0000.0001)                   F
(PID.TID 0000.0001)     ;
(PID.TID 0000.0001)  readBinaryPrec = /* Precision used for reading binary files */
(PID.TID 0000.0001)                      32
(PID.TID 0000.0001)     ;
(PID.TID 0000.0001) writeBinaryPrec = /* Precision used for writing binary files */
(PID.TID 0000.0001)                      32
(PID.TID 0000.0001)     ;
(PID.TID 0000.0001)  globalFiles = /* write "global" (=not per tile) files */
(PID.TID 0000.0001)                   F
(PID.TID 0000.0001)     ;
(PID.TID 0000.0001)  useSingleCpuIO = /* only master MPI process does I/O */
(PID.TID 0000.0001)                   T
(PID.TID 0000.0001)     ;
(PID.TID 0000.0001)  debugMode  =  /* Debug Mode on/off flag */
(PID.TID 0000.0001)                   F
(PID.TID 0000.0001)     ;
(PID.TID 0000.0001)    debLevA  =  /* 1rst level of debugging */
(PID.TID 0000.0001)                       1
(PID.TID 0000.0001)     ;
(PID.TID 0000.0001)    debLevB  =  /* 2nd  level of debugging */
(PID.TID 0000.0001)                       2
(PID.TID 0000.0001)     ;
(PID.TID 0000.0001)  debugLevel =  /* select debugging level */
(PID.TID 0000.0001)                       1
(PID.TID 0000.0001)     ;
(PID.TID 0000.0001) //
(PID.TID 0000.0001) // Elliptic solver(s) paramters ( PARM02 in namelist )
(PID.TID 0000.0001) //
(PID.TID 0000.0001) cg2dMaxIters =   /* Upper limit on 2d con. grad iterations  */
(PID.TID 0000.0001)                     300
(PID.TID 0000.0001)     ;
(PID.TID 0000.0001) cg2dChkResFreq =   /* 2d con. grad convergence test frequency */
(PID.TID 0000.0001)                       1
(PID.TID 0000.0001)     ;
(PID.TID 0000.0001) cg2dTargetResidual =   /* 2d con. grad target residual  */
(PID.TID 0000.0001)                 1.000000000000000E-07
(PID.TID 0000.0001)     ;
(PID.TID 0000.0001) cg2dTargetResWunit =   /* CG2d target residual [W units] */
(PID.TID 0000.0001)                -1.000000000000000E+00
(PID.TID 0000.0001)     ;
(PID.TID 0000.0001) cg2dPreCondFreq =   /* Freq. for updating cg2d preconditioner */
(PID.TID 0000.0001)                       1
(PID.TID 0000.0001)     ;
(PID.TID 0000.0001) useSRCGSolver =  /* use single reduction CG solver(s) */
(PID.TID 0000.0001)                   F
(PID.TID 0000.0001)     ;
(PID.TID 0000.0001) //
(PID.TID 0000.0001) // Time stepping paramters ( PARM03 in namelist )
(PID.TID 0000.0001) //
(PID.TID 0000.0001) deltaTmom =   /* Momentum equation timestep ( s ) */
(PID.TID 0000.0001)                 3.600000000000000E+03
(PID.TID 0000.0001)     ;
(PID.TID 0000.0001) deltaTfreesurf = /* FreeSurface equation timestep ( s ) */
(PID.TID 0000.0001)                 3.600000000000000E+03
(PID.TID 0000.0001)     ;
(PID.TID 0000.0001) dTtracerLev =  /* Tracer equation timestep ( s ) */
(PID.TID 0000.0001)    35 @  3.600000000000000E+03              /* K =  1: 35 */
(PID.TID 0000.0001)     ;
(PID.TID 0000.0001) deltaTClock  =   /* Model clock timestep ( s ) */
(PID.TID 0000.0001)                 3.600000000000000E+03
(PID.TID 0000.0001)     ;
(PID.TID 0000.0001) cAdjFreq =   /* Convective adjustment interval ( s ) */
(PID.TID 0000.0001)                 3.600000000000000E+03
(PID.TID 0000.0001)     ;
(PID.TID 0000.0001) momForcingOutAB = /* =1: take Momentum Forcing out of Adams-Bash. stepping */
(PID.TID 0000.0001)                       0
(PID.TID 0000.0001)     ;
(PID.TID 0000.0001) tracForcingOutAB = /* =1: take T,S,pTr Forcing out of Adams-Bash. stepping */
(PID.TID 0000.0001)                       0
(PID.TID 0000.0001)     ;
(PID.TID 0000.0001) momDissip_In_AB = /* put Dissipation Tendency in Adams-Bash. stepping */
(PID.TID 0000.0001)                   T
(PID.TID 0000.0001)     ;
(PID.TID 0000.0001) doAB_onGtGs = /* apply AB on Tendencies (rather than on T,S)*/
(PID.TID 0000.0001)                   T
(PID.TID 0000.0001)     ;
(PID.TID 0000.0001) abEps =   /* Adams-Bashforth-2 stabilizing weight */
(PID.TID 0000.0001)                 1.000000000000000E-01
(PID.TID 0000.0001)     ;
(PID.TID 0000.0001) pickupStrictlyMatch= /* stop if pickup do not strictly match */
(PID.TID 0000.0001)                   T
(PID.TID 0000.0001)     ;
(PID.TID 0000.0001) nIter0   =   /* Run starting timestep number */
(PID.TID 0000.0001)                       0
(PID.TID 0000.0001)     ;
(PID.TID 0000.0001) nTimeSteps = /* Number of timesteps */
(PID.TID 0000.0001)                       4
(PID.TID 0000.0001)     ;
(PID.TID 0000.0001) nEndIter =   /* Run ending timestep number */
(PID.TID 0000.0001)                       4
(PID.TID 0000.0001)     ;
(PID.TID 0000.0001) baseTime =   /* Model base time ( s ) */
(PID.TID 0000.0001)                 0.000000000000000E+00
(PID.TID 0000.0001)     ;
(PID.TID 0000.0001) startTime =  /* Run start time ( s ) */
(PID.TID 0000.0001)                 0.000000000000000E+00
(PID.TID 0000.0001)     ;
(PID.TID 0000.0001) endTime  =   /* Integration ending time ( s ) */
(PID.TID 0000.0001)                 1.440000000000000E+04
(PID.TID 0000.0001)     ;
(PID.TID 0000.0001) pChkPtFreq = /* Permanent restart/pickup file interval ( s ) */
(PID.TID 0000.0001)                 3.110400000000000E+07
(PID.TID 0000.0001)     ;
(PID.TID 0000.0001) chkPtFreq  = /* Rolling restart/pickup file interval ( s ) */
(PID.TID 0000.0001)                 3.110400000000000E+07
(PID.TID 0000.0001)     ;
(PID.TID 0000.0001) pickup_write_mdsio =   /* Model IO flag. */
(PID.TID 0000.0001)                   T
(PID.TID 0000.0001)     ;
(PID.TID 0000.0001) pickup_read_mdsio =   /* Model IO flag. */
(PID.TID 0000.0001)                   T
(PID.TID 0000.0001)     ;
(PID.TID 0000.0001) pickup_write_mnc =   /* Model IO flag. */
(PID.TID 0000.0001)                   F
(PID.TID 0000.0001)     ;
(PID.TID 0000.0001) pickup_read_mnc =   /* Model IO flag. */
(PID.TID 0000.0001)                   F
(PID.TID 0000.0001)     ;
(PID.TID 0000.0001) pickup_write_immed =   /* Model IO flag. */
(PID.TID 0000.0001)                   F
(PID.TID 0000.0001)     ;
(PID.TID 0000.0001) writePickupAtEnd =   /* Model IO flag. */
(PID.TID 0000.0001)                   T
(PID.TID 0000.0001)     ;
(PID.TID 0000.0001) dumpFreq =   /* Model state write out interval ( s ). */
(PID.TID 0000.0001)                 3.110400000000000E+07
(PID.TID 0000.0001)     ;
(PID.TID 0000.0001) dumpInitAndLast= /* write out Initial & Last iter. model state */
(PID.TID 0000.0001)                   T
(PID.TID 0000.0001)     ;
(PID.TID 0000.0001) snapshot_mdsio =   /* Model IO flag. */
(PID.TID 0000.0001)                   F
(PID.TID 0000.0001)     ;
(PID.TID 0000.0001) snapshot_mnc =   /* Model IO flag. */
(PID.TID 0000.0001)                   T
(PID.TID 0000.0001)     ;
(PID.TID 0000.0001) monitorFreq =   /* Monitor output interval ( s ). */
(PID.TID 0000.0001)                 1.000000000000000E+00
(PID.TID 0000.0001)     ;
(PID.TID 0000.0001) monitorSelect = /* select group of variables to monitor */
(PID.TID 0000.0001)                       3
(PID.TID 0000.0001)     ;
(PID.TID 0000.0001) monitor_stdio =   /* Model IO flag. */
(PID.TID 0000.0001)                   T
(PID.TID 0000.0001)     ;
(PID.TID 0000.0001) monitor_mnc =   /* Model IO flag. */
(PID.TID 0000.0001)                   F
(PID.TID 0000.0001)     ;
(PID.TID 0000.0001) externForcingPeriod =   /* forcing period (s) */
(PID.TID 0000.0001)                 2.592000000000000E+06
(PID.TID 0000.0001)     ;
(PID.TID 0000.0001) externForcingCycle =   /* period of the cyle (s). */
(PID.TID 0000.0001)                 3.110400000000000E+07
(PID.TID 0000.0001)     ;
(PID.TID 0000.0001) tauThetaClimRelax =   /* relaxation time scale (s) */
(PID.TID 0000.0001)                 2.592000000000000E+05
(PID.TID 0000.0001)     ;
(PID.TID 0000.0001) tauSaltClimRelax =   /* relaxation time scale (s) */
(PID.TID 0000.0001)                 0.000000000000000E+00
(PID.TID 0000.0001)     ;
(PID.TID 0000.0001) latBandClimRelax =   /* max. Lat. where relaxation */
(PID.TID 0000.0001)                 1.800000000000000E+02
(PID.TID 0000.0001)     ;
(PID.TID 0000.0001) //
(PID.TID 0000.0001) // Gridding paramters ( PARM04 in namelist )
(PID.TID 0000.0001) //
(PID.TID 0000.0001) usingCartesianGrid = /* Cartesian coordinates flag ( True/False ) */
(PID.TID 0000.0001)                   F
(PID.TID 0000.0001)     ;
(PID.TID 0000.0001) usingCylindricalGrid = /* Cylindrical coordinates flag ( True/False ) */
(PID.TID 0000.0001)                   F
(PID.TID 0000.0001)     ;
(PID.TID 0000.0001) usingSphericalPolarGrid = /* Spherical coordinates flag ( True/False ) */
(PID.TID 0000.0001)                   T
(PID.TID 0000.0001)     ;
(PID.TID 0000.0001) usingCurvilinearGrid = /* Curvilinear coordinates flag ( True/False ) */
(PID.TID 0000.0001)                   F
(PID.TID 0000.0001)     ;
(PID.TID 0000.0001) selectSigmaCoord = /* Hybrid-Sigma Vert. Coordinate option */
(PID.TID 0000.0001)                       0
(PID.TID 0000.0001)     ;
(PID.TID 0000.0001) Ro_SeaLevel = /* r(1) ( units of r ==  m ) */
(PID.TID 0000.0001)                 0.000000000000000E+00
(PID.TID 0000.0001)     ;
(PID.TID 0000.0001) rSigmaBnd = /* r/sigma transition ( units of r ==  m ) */
(PID.TID 0000.0001)                 1.234567000000000E+05
(PID.TID 0000.0001)     ;
(PID.TID 0000.0001) rkSign =   /* index orientation relative to vertical coordinate */
(PID.TID 0000.0001)                -1.000000000000000E+00
(PID.TID 0000.0001)     ;
(PID.TID 0000.0001) gravitySign = /* gravity orientation relative to vertical coordinate */
(PID.TID 0000.0001)                -1.000000000000000E+00
(PID.TID 0000.0001)     ;
(PID.TID 0000.0001) mass2rUnit = /* convert mass per unit area [kg/m2] to r-units [m] */
(PID.TID 0000.0001)                 1.000200040008002E-03
(PID.TID 0000.0001)     ;
(PID.TID 0000.0001) rUnit2mass = /* convert r-units [m] to mass per unit area [kg/m2] */
(PID.TID 0000.0001)                 9.998000000000000E+02
(PID.TID 0000.0001)     ;
(PID.TID 0000.0001) drC =   /* C spacing ( units of r ) */
(PID.TID 0000.0001)                 5.000000000000000E+00,      /* K =  1 */
(PID.TID 0000.0001)    13 @  1.000000000000000E+01,             /* K =  2: 14 */
(PID.TID 0000.0001)                 1.250000000000000E+01,      /* K = 15 */
(PID.TID 0000.0001)     4 @  1.500000000000000E+01,             /* K = 16: 19 */
(PID.TID 0000.0001)                 1.750000000000000E+01,      /* K = 20 */
(PID.TID 0000.0001)     3 @  2.000000000000000E+01,             /* K = 21: 23 */
(PID.TID 0000.0001)                 3.500000000000000E+01,      /* K = 24 */
(PID.TID 0000.0001)                 5.000000000000000E+01,      /* K = 25 */
(PID.TID 0000.0001)                 7.500000000000000E+01,      /* K = 26 */
(PID.TID 0000.0001)                 1.250000000000000E+02,      /* K = 27 */
(PID.TID 0000.0001)                 1.500000000000000E+02,      /* K = 28 */
(PID.TID 0000.0001)                 1.750000000000000E+02,      /* K = 29 */
(PID.TID 0000.0001)                 2.500000000000000E+02,      /* K = 30 */
(PID.TID 0000.0001)                 3.500000000000000E+02,      /* K = 31 */
(PID.TID 0000.0001)     2 @  4.000000000000000E+02,             /* K = 32: 33 */
(PID.TID 0000.0001)                 4.500000000000000E+02,      /* K = 34 */
(PID.TID 0000.0001)                 5.000000000000000E+02       /* K = 35 */
(PID.TID 0000.0001)     ;
(PID.TID 0000.0001) drF =   /* W spacing ( units of r ) */
(PID.TID 0000.0001)    14 @  1.000000000000000E+01,             /* K =  1: 14 */
(PID.TID 0000.0001)     5 @  1.500000000000000E+01,             /* K = 15: 19 */
(PID.TID 0000.0001)     4 @  2.000000000000000E+01,             /* K = 20: 23 */
(PID.TID 0000.0001)     2 @  5.000000000000000E+01,             /* K = 24: 25 */
(PID.TID 0000.0001)                 1.000000000000000E+02,      /* K = 26 */
(PID.TID 0000.0001)     2 @  1.500000000000000E+02,             /* K = 27: 28 */
(PID.TID 0000.0001)                 2.000000000000000E+02,      /* K = 29 */
(PID.TID 0000.0001)                 3.000000000000000E+02,      /* K = 30 */
(PID.TID 0000.0001)     3 @  4.000000000000000E+02,             /* K = 31: 33 */
(PID.TID 0000.0001)     2 @  5.000000000000000E+02              /* K = 34: 35 */
(PID.TID 0000.0001)     ;
(PID.TID 0000.0001) delX = /* U spacing ( m - cartesian, degrees - spherical ) */
(PID.TID 0000.0001)                 1.000000000000000E+00       /* I =  1 */
(PID.TID 0000.0001)     ;
(PID.TID 0000.0001) delY = /* V spacing ( m - cartesian, degrees - spherical ) */
(PID.TID 0000.0001)                 1.000000000000000E+00       /* J =  1 */
(PID.TID 0000.0001)     ;
(PID.TID 0000.0001) xgOrigin = /* X-axis origin of West  edge (cartesian: m, lat-lon: deg.) */
(PID.TID 0000.0001)                 3.350000000000000E+02
(PID.TID 0000.0001)     ;
(PID.TID 0000.0001) ygOrigin = /* Y-axis origin of South edge (cartesian: m, lat-lon: deg.) */
(PID.TID 0000.0001)                -1.800000000000000E+01
(PID.TID 0000.0001)     ;
(PID.TID 0000.0001) rSphere =  /* Radius ( ignored - cartesian, m - spherical ) */
(PID.TID 0000.0001)                 6.370000000000000E+06
(PID.TID 0000.0001)     ;
(PID.TID 0000.0001) deepAtmosphere = /* Deep/Shallow Atmosphere flag (True/False) */
(PID.TID 0000.0001)                   F
(PID.TID 0000.0001)     ;
(PID.TID 0000.0001) xC =  /* xC(:,1,:,1) : P-point X coord ( deg. or m if cartesian) */
(PID.TID 0000.0001)                 3.355000000000000E+02       /* I =  1 */
(PID.TID 0000.0001)     ;
(PID.TID 0000.0001) yC =  /* yC(1,:,1,:) : P-point Y coord ( deg. or m if cartesian) */
(PID.TID 0000.0001)                -1.750000000000000E+01       /* J =  1 */
(PID.TID 0000.0001)     ;
(PID.TID 0000.0001) rcoord = /* P-point R coordinate (  units of r ) */
(PID.TID 0000.0001)                -5.000000000000000E+00,      /* K =  1 */
(PID.TID 0000.0001)                -1.500000000000000E+01,      /* K =  2 */
(PID.TID 0000.0001)                -2.500000000000000E+01,      /* K =  3 */
(PID.TID 0000.0001)                -3.500000000000000E+01,      /* K =  4 */
(PID.TID 0000.0001)                -4.500000000000000E+01,      /* K =  5 */
(PID.TID 0000.0001)                -5.500000000000000E+01,      /* K =  6 */
(PID.TID 0000.0001)                -6.500000000000000E+01,      /* K =  7 */
(PID.TID 0000.0001)                -7.500000000000000E+01,      /* K =  8 */
(PID.TID 0000.0001)                -8.500000000000000E+01,      /* K =  9 */
(PID.TID 0000.0001)                -9.500000000000000E+01,      /* K = 10 */
(PID.TID 0000.0001)                -1.050000000000000E+02,      /* K = 11 */
(PID.TID 0000.0001)                -1.150000000000000E+02,      /* K = 12 */
(PID.TID 0000.0001)                -1.250000000000000E+02,      /* K = 13 */
(PID.TID 0000.0001)                -1.350000000000000E+02,      /* K = 14 */
(PID.TID 0000.0001)                -1.475000000000000E+02,      /* K = 15 */
(PID.TID 0000.0001)                -1.625000000000000E+02,      /* K = 16 */
(PID.TID 0000.0001)                -1.775000000000000E+02,      /* K = 17 */
(PID.TID 0000.0001)                -1.925000000000000E+02,      /* K = 18 */
(PID.TID 0000.0001)                -2.075000000000000E+02,      /* K = 19 */
(PID.TID 0000.0001)                -2.250000000000000E+02,      /* K = 20 */
(PID.TID 0000.0001)                -2.450000000000000E+02,      /* K = 21 */
(PID.TID 0000.0001)                -2.650000000000000E+02,      /* K = 22 */
(PID.TID 0000.0001)                -2.850000000000000E+02,      /* K = 23 */
(PID.TID 0000.0001)                -3.200000000000000E+02,      /* K = 24 */
(PID.TID 0000.0001)                -3.700000000000000E+02,      /* K = 25 */
(PID.TID 0000.0001)                -4.450000000000000E+02,      /* K = 26 */
(PID.TID 0000.0001)                -5.700000000000000E+02,      /* K = 27 */
(PID.TID 0000.0001)                -7.200000000000000E+02,      /* K = 28 */
(PID.TID 0000.0001)                -8.950000000000000E+02,      /* K = 29 */
(PID.TID 0000.0001)                -1.145000000000000E+03,      /* K = 30 */
(PID.TID 0000.0001)                -1.495000000000000E+03,      /* K = 31 */
(PID.TID 0000.0001)                -1.895000000000000E+03,      /* K = 32 */
(PID.TID 0000.0001)                -2.295000000000000E+03,      /* K = 33 */
(PID.TID 0000.0001)                -2.745000000000000E+03,      /* K = 34 */
(PID.TID 0000.0001)                -3.245000000000000E+03       /* K = 35 */
(PID.TID 0000.0001)     ;
(PID.TID 0000.0001) rF =   /* W-Interf. R coordinate (  units of r ) */
(PID.TID 0000.0001)                 0.000000000000000E+00,      /* K =  1 */
(PID.TID 0000.0001)                -1.000000000000000E+01,      /* K =  2 */
(PID.TID 0000.0001)                -2.000000000000000E+01,      /* K =  3 */
(PID.TID 0000.0001)                -3.000000000000000E+01,      /* K =  4 */
(PID.TID 0000.0001)                -4.000000000000000E+01,      /* K =  5 */
(PID.TID 0000.0001)                -5.000000000000000E+01,      /* K =  6 */
(PID.TID 0000.0001)                -6.000000000000000E+01,      /* K =  7 */
(PID.TID 0000.0001)                -7.000000000000000E+01,      /* K =  8 */
(PID.TID 0000.0001)                -8.000000000000000E+01,      /* K =  9 */
(PID.TID 0000.0001)                -9.000000000000000E+01,      /* K = 10 */
(PID.TID 0000.0001)                -1.000000000000000E+02,      /* K = 11 */
(PID.TID 0000.0001)                -1.100000000000000E+02,      /* K = 12 */
(PID.TID 0000.0001)                -1.200000000000000E+02,      /* K = 13 */
(PID.TID 0000.0001)                -1.300000000000000E+02,      /* K = 14 */
(PID.TID 0000.0001)                -1.400000000000000E+02,      /* K = 15 */
(PID.TID 0000.0001)                -1.550000000000000E+02,      /* K = 16 */
(PID.TID 0000.0001)                -1.700000000000000E+02,      /* K = 17 */
(PID.TID 0000.0001)                -1.850000000000000E+02,      /* K = 18 */
(PID.TID 0000.0001)                -2.000000000000000E+02,      /* K = 19 */
(PID.TID 0000.0001)                -2.150000000000000E+02,      /* K = 20 */
(PID.TID 0000.0001)                -2.350000000000000E+02,      /* K = 21 */
(PID.TID 0000.0001)                -2.550000000000000E+02,      /* K = 22 */
(PID.TID 0000.0001)                -2.750000000000000E+02,      /* K = 23 */
(PID.TID 0000.0001)                -2.950000000000000E+02,      /* K = 24 */
(PID.TID 0000.0001)                -3.450000000000000E+02,      /* K = 25 */
(PID.TID 0000.0001)                -3.950000000000000E+02,      /* K = 26 */
(PID.TID 0000.0001)                -4.950000000000000E+02,      /* K = 27 */
(PID.TID 0000.0001)                -6.450000000000000E+02,      /* K = 28 */
(PID.TID 0000.0001)                -7.950000000000000E+02,      /* K = 29 */
(PID.TID 0000.0001)                -9.950000000000000E+02,      /* K = 30 */
(PID.TID 0000.0001)                -1.295000000000000E+03,      /* K = 31 */
(PID.TID 0000.0001)                -1.695000000000000E+03,      /* K = 32 */
(PID.TID 0000.0001)                -2.095000000000000E+03,      /* K = 33 */
(PID.TID 0000.0001)                -2.495000000000000E+03,      /* K = 34 */
(PID.TID 0000.0001)                -2.995000000000000E+03,      /* K = 35 */
(PID.TID 0000.0001)                -3.495000000000000E+03       /* K = 36 */
(PID.TID 0000.0001)     ;
(PID.TID 0000.0001) deepFacC = /* deep-model grid factor @ cell-Center (-) */
(PID.TID 0000.0001)    35 @  1.000000000000000E+00              /* K =  1: 35 */
(PID.TID 0000.0001)     ;
(PID.TID 0000.0001) deepFacF = /* deep-model grid factor @ W-Interface (-) */
(PID.TID 0000.0001)    36 @  1.000000000000000E+00              /* K =  1: 36 */
(PID.TID 0000.0001)     ;
(PID.TID 0000.0001) rVel2wUnit = /* convert units: rVel -> wSpeed (=1 if z-coord)*/
(PID.TID 0000.0001)    36 @  1.000000000000000E+00              /* K =  1: 36 */
(PID.TID 0000.0001)     ;
(PID.TID 0000.0001) wUnit2rVel = /* convert units: wSpeed -> rVel (=1 if z-coord)*/
(PID.TID 0000.0001)    36 @  1.000000000000000E+00              /* K =  1: 36 */
(PID.TID 0000.0001)     ;
(PID.TID 0000.0001) dBdrRef = /* Vertical gradient of reference boyancy [(m/s/r)^2)] */
(PID.TID 0000.0001)                 0.000000000000000E+00,      /* K =  1 */
(PID.TID 0000.0001)                 1.232578190459821E-04,      /* K =  2 */
(PID.TID 0000.0001)                 3.063957957303617E-05,      /* K =  3 */
(PID.TID 0000.0001)                 1.521320422054373E-04,      /* K =  4 */
(PID.TID 0000.0001)                 3.021271930223580E-05,      /* K =  5 */
(PID.TID 0000.0001)                 1.499903428890670E-04,      /* K =  6 */
(PID.TID 0000.0001)                 1.186737265074332E-04,      /* K =  7 */
(PID.TID 0000.0001)                 1.466841384627423E-04,      /* K =  8 */
(PID.TID 0000.0001)                 8.712618931102987E-05,      /* K =  9 */
(PID.TID 0000.0001)                 1.151380441308261E-04,      /* K = 10 */
(PID.TID 0000.0001)                 5.712979717883684E-05,      /* K = 11 */
(PID.TID 0000.0001)                 8.515049872565506E-05,      /* K = 12 */
(PID.TID 0000.0001)                 8.448721842774896E-05,      /* K = 13 */
(PID.TID 0000.0001)                 1.116043428725511E-04,      /* K = 14 */
(PID.TID 0000.0001)                 1.102373809396796E-04,      /* K = 15 */
(PID.TID 0000.0001)                 1.798828639202717E-04,      /* K = 16 */
(PID.TID 0000.0001)                 1.918102676980872E-04,      /* K = 17 */
(PID.TID 0000.0001)                 1.853506120896664E-04,      /* K = 18 */
(PID.TID 0000.0001)                 1.787791674911888E-04,      /* K = 19 */
(PID.TID 0000.0001)                 9.455522998141848E-05,      /* K = 20 */
(PID.TID 0000.0001)                 1.259231836379978E-04,      /* K = 21 */
(PID.TID 0000.0001)                 9.923620256554768E-05,      /* K = 22 */
(PID.TID 0000.0001)                 8.531935398693722E-05,      /* K = 23 */
(PID.TID 0000.0001)                 4.137475825384700E-05,      /* K = 24 */
(PID.TID 0000.0001)                 5.930109718499171E-05,      /* K = 25 */
(PID.TID 0000.0001)                 3.689739454308316E-05,      /* K = 26 */
(PID.TID 0000.0001)                 3.215311288275425E-05,      /* K = 27 */
(PID.TID 0000.0001)                 2.340106578013931E-05,      /* K = 28 */
(PID.TID 0000.0001)                 8.957465806881803E-06,      /* K = 29 */
(PID.TID 0000.0001)                 2.029141226789735E-06,      /* K = 30 */
(PID.TID 0000.0001)                 0.000000000000000E+00,      /* K = 31 */
(PID.TID 0000.0001)                 1.052869956707729E-06,      /* K = 32 */
(PID.TID 0000.0001)                 1.465965950004292E-06,      /* K = 33 */
(PID.TID 0000.0001)                 6.817081889333135E-07,      /* K = 34 */
(PID.TID 0000.0001)                 6.544800624285541E-07       /* K = 35 */
(PID.TID 0000.0001)     ;
(PID.TID 0000.0001) rotateGrid = /* use rotated grid ( True/False ) */
(PID.TID 0000.0001)                   F
(PID.TID 0000.0001)     ;
(PID.TID 0000.0001) phiEuler = /* Euler angle, rotation about original z-coordinate [rad] */
(PID.TID 0000.0001)                 0.000000000000000E+00
(PID.TID 0000.0001)     ;
(PID.TID 0000.0001) thetaEuler = /* Euler angle, rotation about new x-coordinate [rad] */
(PID.TID 0000.0001)                 0.000000000000000E+00
(PID.TID 0000.0001)     ;
(PID.TID 0000.0001) psiEuler = /* Euler angle, rotation about new z-coordinate [rad] */
(PID.TID 0000.0001)                 0.000000000000000E+00
(PID.TID 0000.0001)     ;
(PID.TID 0000.0001) dxF =  /* dxF(:,1,:,1) ( units: m ) */
(PID.TID 0000.0001)                 1.060318408771987E+05       /* I =  1 */
(PID.TID 0000.0001)     ;
(PID.TID 0000.0001) dxF =  /* dxF(1,:,1,:) ( units: m ) */
(PID.TID 0000.0001)                 1.060318408771987E+05       /* J =  1 */
(PID.TID 0000.0001)     ;
(PID.TID 0000.0001) dyF =  /* dyF(:,1,:,1) ( units: m ) */
(PID.TID 0000.0001)                 1.111774733520388E+05       /* I =  1 */
(PID.TID 0000.0001)     ;
(PID.TID 0000.0001) dyF =  /* dyF(1,:,1,:) ( units: m ) */
(PID.TID 0000.0001)                 1.111774733520388E+05       /* J =  1 */
(PID.TID 0000.0001)     ;
(PID.TID 0000.0001) dxG =  /* dxG(:,1,:,1) ( units: m ) */
(PID.TID 0000.0001)                 1.057360604966873E+05       /* I =  1 */
(PID.TID 0000.0001)     ;
(PID.TID 0000.0001) dxG =  /* dxG(1,:,1,:) ( units: m ) */
(PID.TID 0000.0001)                 1.057360604966873E+05       /* J =  1 */
(PID.TID 0000.0001)     ;
(PID.TID 0000.0001) dyG =  /* dyG(:,1,:,1) ( units: m ) */
(PID.TID 0000.0001)                 1.111774733520388E+05       /* I =  1 */
(PID.TID 0000.0001)     ;
(PID.TID 0000.0001) dyG =  /* dyG(1,:,1,:) ( units: m ) */
(PID.TID 0000.0001)                 1.111774733520388E+05       /* J =  1 */
(PID.TID 0000.0001)     ;
(PID.TID 0000.0001) dxC =  /* dxC(:,1,:,1) ( units: m ) */
(PID.TID 0000.0001)                 1.060318408771987E+05       /* I =  1 */
(PID.TID 0000.0001)     ;
(PID.TID 0000.0001) dxC =  /* dxC(1,:,1,:) ( units: m ) */
(PID.TID 0000.0001)                 1.060318408771987E+05       /* J =  1 */
(PID.TID 0000.0001)     ;
(PID.TID 0000.0001) dyC =  /* dyC(:,1,:,1) ( units: m ) */
(PID.TID 0000.0001)                 1.111774733520388E+05       /* I =  1 */
(PID.TID 0000.0001)     ;
(PID.TID 0000.0001) dyC =  /* dyC(1,:,1,:) ( units: m ) */
(PID.TID 0000.0001)                 1.111774733520388E+05       /* J =  1 */
(PID.TID 0000.0001)     ;
(PID.TID 0000.0001) dxV =  /* dxV(:,1,:,1) ( units: m ) */
(PID.TID 0000.0001)                 1.057360604966873E+05       /* I =  1 */
(PID.TID 0000.0001)     ;
(PID.TID 0000.0001) dxV =  /* dxV(1,:,1,:) ( units: m ) */
(PID.TID 0000.0001)                 1.057360604966873E+05       /* J =  1 */
(PID.TID 0000.0001)     ;
(PID.TID 0000.0001) dyU =  /* dyU(:,1,:,1) ( units: m ) */
(PID.TID 0000.0001)                 1.111774733520388E+05       /* I =  1 */
(PID.TID 0000.0001)     ;
(PID.TID 0000.0001) dyU =  /* dyU(1,:,1,:) ( units: m ) */
(PID.TID 0000.0001)                 1.111774733520388E+05       /* J =  1 */
(PID.TID 0000.0001)     ;
(PID.TID 0000.0001) rA  =  /* rA (:,1,:,1) ( units: m^2 ) */
(PID.TID 0000.0001)                 1.178820254176956E+10       /* I =  1 */
(PID.TID 0000.0001)     ;
(PID.TID 0000.0001) rA  =  /* rA (1,:,1,:) ( units: m^2 ) */
(PID.TID 0000.0001)                 1.178820254176956E+10       /* J =  1 */
(PID.TID 0000.0001)     ;
(PID.TID 0000.0001) rAw =  /* rAw(:,1,:,1) ( units: m^2 ) */
(PID.TID 0000.0001)                 1.178820254176956E+10       /* I =  1 */
(PID.TID 0000.0001)     ;
(PID.TID 0000.0001) rAw =  /* rAw(1,:,1,:) ( units: m^2 ) */
(PID.TID 0000.0001)                 1.178820254176956E+10       /* J =  1 */
(PID.TID 0000.0001)     ;
(PID.TID 0000.0001) rAs =  /* rAs(:,1,:,1) ( units: m^2 ) */
(PID.TID 0000.0001)                 1.175531884377377E+10       /* I =  1 */
(PID.TID 0000.0001)     ;
(PID.TID 0000.0001) rAs =  /* rAs(1,:,1,:) ( units: m^2 ) */
(PID.TID 0000.0001)                 1.175531884377377E+10       /* J =  1 */
(PID.TID 0000.0001)     ;
(PID.TID 0000.0001) globalArea = /* Integrated horizontal Area (m^2) */
(PID.TID 0000.0001)                 1.178820254176956E+10
(PID.TID 0000.0001)     ;
(PID.TID 0000.0001) // =======================================================
(PID.TID 0000.0001) // End of Model config. summary
(PID.TID 0000.0001) // =======================================================
(PID.TID 0000.0001) 
(PID.TID 0000.0001) == Packages configuration : Check & print summary ==
(PID.TID 0000.0001) 
(PID.TID 0000.0001) GCHEM_CHECK: #define ALLOW_GCHEM
(PID.TID 0000.0001) DARWIN_CHECK: #define ALLOW_DARWIN
(PID.TID 0000.0001) DARWIN_CHECK: iPtr darwin   PTRACERS_names
(PID.TID 0000.0001) DARWIN_CHECK:    1 PO4      PO4
(PID.TID 0000.0001) DARWIN_CHECK:    2 NO3      NO3
(PID.TID 0000.0001) DARWIN_CHECK:    3 FeT      FeT
(PID.TID 0000.0001) DARWIN_CHECK:    4 Si       SiO2
(PID.TID 0000.0001) DARWIN_CHECK:    5 DOP      DOP
(PID.TID 0000.0001) DARWIN_CHECK:    6 DON      DON
(PID.TID 0000.0001) DARWIN_CHECK:    7 DOFe     DOFe
(PID.TID 0000.0001) DARWIN_CHECK:    8 ZooP (1) ZOO1P
(PID.TID 0000.0001) DARWIN_CHECK:    9 ZooN (1) ZOO1N
(PID.TID 0000.0001) DARWIN_CHECK:   10 ZooFe(1) ZOO1Fe
(PID.TID 0000.0001) DARWIN_CHECK:   11 ZooSi(1) ZOO1Si
(PID.TID 0000.0001) DARWIN_CHECK:   12 ZooP (2) ZOO2P
(PID.TID 0000.0001) DARWIN_CHECK:   13 ZooN (2) ZOO2N
(PID.TID 0000.0001) DARWIN_CHECK:   14 ZooFe(2) ZOO2Fe
(PID.TID 0000.0001) DARWIN_CHECK:   15 ZooSi(2) ZOO2Si
(PID.TID 0000.0001) DARWIN_CHECK:   16 POP      POP
(PID.TID 0000.0001) DARWIN_CHECK:   17 PON      PON
(PID.TID 0000.0001) DARWIN_CHECK:   18 POFe     POFe
(PID.TID 0000.0001) DARWIN_CHECK:   19 POSi     POSi
(PID.TID 0000.0001) DARWIN_CHECK:   20 NH4      NH4
(PID.TID 0000.0001) DARWIN_CHECK:   21 NO2      NO2
(PID.TID 0000.0001) DARWIN_CHECK:   22 Phy(1)   Phy1
(PID.TID 0000.0001) DARWIN_CHECK:   99 Phy(  78)Phy78
(PID.TID 0000.0001) GAD_CHECK: #define ALLOW_GENERIC_ADVDIFF
(PID.TID 0000.0001) // =======================================================
(PID.TID 0000.0001) // CONFIG_CHECK : Normal End
(PID.TID 0000.0001) // =======================================================
(PID.TID 0000.0001) 
(PID.TID 0000.0001)  MDS_READ_FIELD: opening global file: ../input/input/loc1_temp_janprof.bin
(PID.TID 0000.0001)  MDS_READ_FIELD: opening global file: ../input/input/salt_uniform.bin
(PID.TID 0000.0001) Start initial hydrostatic pressure computation
(PID.TID 0000.0001) Pressure is predetermined for buoyancyRelation OCEANIC
(PID.TID 0000.0001) 
(PID.TID 0000.0001)  MDS_READ_FIELD: opening global file: ../input/input/loc1_temp_monsurf.bin
(PID.TID 0000.0001)  MDS_READ_FIELD: opening global file: ../input/input/loc1_phos_janprof.bin
(PID.TID 0000.0001)  MDS_READ_FIELD: opening global file: ../input/input/loc1_nitr_janprof.bin
(PID.TID 0000.0001)  MDS_READ_FIELD: opening global file: ../input/input/fet_uniform.bin
(PID.TID 0000.0001)  MDS_READ_FIELD: opening global file: ../input/input/loc1_sil_janprof.bin
(PID.TID 0000.0001)  MDS_READ_FIELD: opening global file: ../input/input/loc1_DOP_run83_janprof.bin
(PID.TID 0000.0001)  MDS_READ_FIELD: opening global file: ../input/input/loc1_DON_run83_janprof.bin
(PID.TID 0000.0001)  MDS_READ_FIELD: opening global file: ../input/input/loc1_DOFe_run83_janprof.bin
(PID.TID 0000.0001)  MDS_READ_FIELD: opening global file: ../input/input/loc1_ZOOP_run83_janprof.bin
(PID.TID 0000.0001)  MDS_READ_FIELD: opening global file: ../input/input/loc1_ZOON_run83_janprof.bin
(PID.TID 0000.0001)  MDS_READ_FIELD: opening global file: ../input/input/loc1_ZOOFe_run83_janprof.bin
(PID.TID 0000.0001)  MDS_READ_FIELD: opening global file: ../input/input/loc1_ZOOSi_run83_janprof.bin
(PID.TID 0000.0001)  MDS_READ_FIELD: opening global file: ../input/input/loc1_ZOOP_run83_janprof.bin
(PID.TID 0000.0001)  MDS_READ_FIELD: opening global file: ../input/input/loc1_ZOON_run83_janprof.bin
(PID.TID 0000.0001)  MDS_READ_FIELD: opening global file: ../input/input/loc1_ZOOFe_run83_janprof.bin
(PID.TID 0000.0001)  MDS_READ_FIELD: opening global file: ../input/input/loc1_ZOOSi_run83_janprof.bin
(PID.TID 0000.0001)  MDS_READ_FIELD: opening global file: ../input/input/loc1_POP_run83_janprof.bin
(PID.TID 0000.0001)  MDS_READ_FIELD: opening global file: ../input/input/loc1_PON_run83_janprof.bin
(PID.TID 0000.0001)  MDS_READ_FIELD: opening global file: ../input/input/loc1_POFe_run83_janprof.bin
(PID.TID 0000.0001)  MDS_READ_FIELD: opening global file: ../input/input/loc1_POSi_run83_janprof.bin
(PID.TID 0000.0001)  MDS_READ_FIELD: opening global file: ../input/input/loc1_NH4_run83_janprof.bin
(PID.TID 0000.0001)  MDS_READ_FIELD: opening global file: ../input/input/loc1_NO2_run83_janprof.bin
(PID.TID 0000.0001)  MDS_READ_FIELD: opening global file: ../input/input/loc1_biomass_run83_janprof.bin
(PID.TID 0000.0001)  MDS_READ_FIELD: opening global file: ../input/input/loc1_biomass_run83_janprof.bin
(PID.TID 0000.0001)  MDS_READ_FIELD: opening global file: ../input/input/loc1_biomass_run83_janprof.bin
(PID.TID 0000.0001)  MDS_READ_FIELD: opening global file: ../input/input/loc1_biomass_run83_janprof.bin
(PID.TID 0000.0001)  MDS_READ_FIELD: opening global file: ../input/input/loc1_biomass_run83_janprof.bin
(PID.TID 0000.0001)  MDS_READ_FIELD: opening global file: ../input/input/loc1_biomass_run83_janprof.bin
(PID.TID 0000.0001)  MDS_READ_FIELD: opening global file: ../input/input/loc1_biomass_run83_janprof.bin
(PID.TID 0000.0001)  MDS_READ_FIELD: opening global file: ../input/input/loc1_biomass_run83_janprof.bin
(PID.TID 0000.0001)  MDS_READ_FIELD: opening global file: ../input/input/loc1_biomass_run83_janprof.bin
(PID.TID 0000.0001)  MDS_READ_FIELD: opening global file: ../input/input/loc1_biomass_run83_janprof.bin
(PID.TID 0000.0001)  MDS_READ_FIELD: opening global file: ../input/input/loc1_biomass_run83_janprof.bin
(PID.TID 0000.0001)  MDS_READ_FIELD: opening global file: ../input/input/loc1_biomass_run83_janprof.bin
(PID.TID 0000.0001)  MDS_READ_FIELD: opening global file: ../input/input/loc1_biomass_run83_janprof.bin
(PID.TID 0000.0001)  MDS_READ_FIELD: opening global file: ../input/input/loc1_biomass_run83_janprof.bin
(PID.TID 0000.0001)  MDS_READ_FIELD: opening global file: ../input/input/loc1_biomass_run83_janprof.bin
(PID.TID 0000.0001)  MDS_READ_FIELD: opening global file: ../input/input/loc1_biomass_run83_janprof.bin
(PID.TID 0000.0001)  MDS_READ_FIELD: opening global file: ../input/input/loc1_biomass_run83_janprof.bin
(PID.TID 0000.0001)  MDS_READ_FIELD: opening global file: ../input/input/loc1_biomass_run83_janprof.bin
(PID.TID 0000.0001)  MDS_READ_FIELD: opening global file: ../input/input/loc1_biomass_run83_janprof.bin
(PID.TID 0000.0001)  MDS_READ_FIELD: opening global file: ../input/input/loc1_biomass_run83_janprof.bin
(PID.TID 0000.0001)  MDS_READ_FIELD: opening global file: ../input/input/loc1_biomass_run83_janprof.bin
(PID.TID 0000.0001)  MDS_READ_FIELD: opening global file: ../input/input/loc1_biomass_run83_janprof.bin
(PID.TID 0000.0001)  MDS_READ_FIELD: opening global file: ../input/input/loc1_biomass_run83_janprof.bin
(PID.TID 0000.0001)  MDS_READ_FIELD: opening global file: ../input/input/loc1_biomass_run83_janprof.bin
(PID.TID 0000.0001)  MDS_READ_FIELD: opening global file: ../input/input/loc1_biomass_run83_janprof.bin
(PID.TID 0000.0001)  MDS_READ_FIELD: opening global file: ../input/input/loc1_biomass_run83_janprof.bin
(PID.TID 0000.0001)  MDS_READ_FIELD: opening global file: ../input/input/loc1_biomass_run83_janprof.bin
(PID.TID 0000.0001)  MDS_READ_FIELD: opening global file: ../input/input/loc1_biomass_run83_janprof.bin
(PID.TID 0000.0001)  MDS_READ_FIELD: opening global file: ../input/input/loc1_biomass_run83_janprof.bin
(PID.TID 0000.0001)  MDS_READ_FIELD: opening global file: ../input/input/loc1_biomass_run83_janprof.bin
(PID.TID 0000.0001)  MDS_READ_FIELD: opening global file: ../input/input/loc1_biomass_run83_janprof.bin
(PID.TID 0000.0001)  MDS_READ_FIELD: opening global file: ../input/input/loc1_biomass_run83_janprof.bin
(PID.TID 0000.0001)  MDS_READ_FIELD: opening global file: ../input/input/loc1_biomass_run83_janprof.bin
(PID.TID 0000.0001)  MDS_READ_FIELD: opening global file: ../input/input/loc1_biomass_run83_janprof.bin
(PID.TID 0000.0001)  MDS_READ_FIELD: opening global file: ../input/input/loc1_biomass_run83_janprof.bin
(PID.TID 0000.0001)  MDS_READ_FIELD: opening global file: ../input/input/loc1_biomass_run83_janprof.bin
(PID.TID 0000.0001)  MDS_READ_FIELD: opening global file: ../input/input/loc1_biomass_run83_janprof.bin
(PID.TID 0000.0001)  MDS_READ_FIELD: opening global file: ../input/input/loc1_biomass_run83_janprof.bin
(PID.TID 0000.0001)  MDS_READ_FIELD: opening global file: ../input/input/loc1_biomass_run83_janprof.bin
(PID.TID 0000.0001)  MDS_READ_FIELD: opening global file: ../input/input/loc1_biomass_run83_janprof.bin
(PID.TID 0000.0001)  MDS_READ_FIELD: opening global file: ../input/input/loc1_biomass_run83_janprof.bin
(PID.TID 0000.0001)  MDS_READ_FIELD: opening global file: ../input/input/loc1_biomass_run83_janprof.bin
(PID.TID 0000.0001)  MDS_READ_FIELD: opening global file: ../input/input/loc1_biomass_run83_janprof.bin
(PID.TID 0000.0001)  MDS_READ_FIELD: opening global file: ../input/input/loc1_biomass_run83_janprof.bin
(PID.TID 0000.0001)  MDS_READ_FIELD: opening global file: ../input/input/loc1_biomass_run83_janprof.bin
(PID.TID 0000.0001)  MDS_READ_FIELD: opening global file: ../input/input/loc1_biomass_run83_janprof.bin
(PID.TID 0000.0001)  MDS_READ_FIELD: opening global file: ../input/input/loc1_biomass_run83_janprof.bin
(PID.TID 0000.0001)  MDS_READ_FIELD: opening global file: ../input/input/loc1_biomass_run83_janprof.bin
(PID.TID 0000.0001)  MDS_READ_FIELD: opening global file: ../input/input/loc1_biomass_run83_janprof.bin
(PID.TID 0000.0001)  MDS_READ_FIELD: opening global file: ../input/input/loc1_biomass_run83_janprof.bin
(PID.TID 0000.0001)  MDS_READ_FIELD: opening global file: ../input/input/loc1_biomass_run83_janprof.bin
(PID.TID 0000.0001)  MDS_READ_FIELD: opening global file: ../input/input/loc1_biomass_run83_janprof.bin
(PID.TID 0000.0001)  MDS_READ_FIELD: opening global file: ../input/input/loc1_biomass_run83_janprof.bin
(PID.TID 0000.0001)  MDS_READ_FIELD: opening global file: ../input/input/loc1_biomass_run83_janprof.bin
(PID.TID 0000.0001)  MDS_READ_FIELD: opening global file: ../input/input/loc1_biomass_run83_janprof.bin
(PID.TID 0000.0001)  MDS_READ_FIELD: opening global file: ../input/input/loc1_biomass_run83_janprof.bin
(PID.TID 0000.0001)  MDS_READ_FIELD: opening global file: ../input/input/loc1_biomass_run83_janprof.bin
(PID.TID 0000.0001)  MDS_READ_FIELD: opening global file: ../input/input/loc1_biomass_run83_janprof.bin
(PID.TID 0000.0001)  MDS_READ_FIELD: opening global file: ../input/input/loc1_biomass_run83_janprof.bin
(PID.TID 0000.0001)  MDS_READ_FIELD: opening global file: ../input/input/loc1_biomass_run83_janprof.bin
(PID.TID 0000.0001)  MDS_READ_FIELD: opening global file: ../input/input/loc1_biomass_run83_janprof.bin
(PID.TID 0000.0001)  MDS_READ_FIELD: opening global file: ../input/input/loc1_biomass_run83_janprof.bin
(PID.TID 0000.0001)  MDS_READ_FIELD: opening global file: ../input/input/loc1_biomass_run83_janprof.bin
(PID.TID 0000.0001)  MDS_READ_FIELD: opening global file: ../input/input/loc1_biomass_run83_janprof.bin
(PID.TID 0000.0001)  MDS_READ_FIELD: opening global file: ../input/input/loc1_biomass_run83_janprof.bin
(PID.TID 0000.0001)  MDS_READ_FIELD: opening global file: ../input/input/loc1_biomass_run83_janprof.bin
(PID.TID 0000.0001)  MDS_READ_FIELD: opening global file: ../input/input/loc1_biomass_run83_janprof.bin
(PID.TID 0000.0001)  MDS_READ_FIELD: opening global file: ../input/input/loc1_biomass_run83_janprof.bin
(PID.TID 0000.0001)  MDS_READ_FIELD: opening global file: ../input/input/loc1_biomass_run83_janprof.bin
(PID.TID 0000.0001)  MDS_READ_FIELD: opening global file: ../input/input/loc1_biomass_run83_janprof.bin
(PID.TID 0000.0001)  MDS_READ_FIELD: opening global file: ../input/input/loc1_biomass_run83_janprof.bin
(PID.TID 0000.0001)  MDS_READ_FIELD: opening global file: ../input/input/loc1_biomass_run83_janprof.bin
(PID.TID 0000.0001)  MDS_READ_FIELD: opening global file: ../input/input/loc1_biomass_run83_janprof.bin
(PID.TID 0000.0001)  MDS_READ_FIELD: opening global file: ../input/input/loc1_biomass_run83_janprof.bin
(PID.TID 0000.0001)  MDS_READ_FIELD: opening global file: ../input/input/loc1_biomass_run83_janprof.bin
(PID.TID 0000.0001)  MDS_READ_FIELD: opening global file: ../input/input/loc1_biomass_run83_janprof.bin
(PID.TID 0000.0001)  MDS_READ_FIELD: opening global file: ../input/input/loc1_biomass_run83_janprof.bin
(PID.TID 0000.0001)  MDS_READ_FIELD: opening global file: ../input/input/loc1_biomass_run83_janprof.bin
(PID.TID 0000.0001) // =======================================================
(PID.TID 0000.0001) // Darwin init variables >>> START <<<
(PID.TID 0000.0001) // =======================================================
(PID.TID 0000.0001) QQ random port_rand            11231   0.4077530000000000
(PID.TID 0000.0001) generate Phyto: np =    1 FIXED - no DIAZO
(PID.TID 0000.0001) generate Phyto: np =    1 Topt       =   14.5686000000000
(PID.TID 0000.0001) generate Phyto: np =    1 growthdays =  0.400000000000000
(PID.TID 0000.0001) generate Phyto: np =    1 pcmax    =  2.893518518518519E-005
(PID.TID 0000.0001) generate Phyto: np =    1 mQyield    =  4.000000000000000E-005
(PID.TID 0000.0001) generate Phyto: np =    1 chl2cmax     =  0.608264375000000
(PID.TID 0000.0001) generate Phyto: np =    2 FIXED - no DIAZO
(PID.TID 0000.0001) generate Phyto: np =    2 Topt       =   26.6988320000000
(PID.TID 0000.0001) generate Phyto: np =    2 growthdays =  0.700000000000000
(PID.TID 0000.0001) generate Phyto: np =    2 pcmax    =  1.653439153439154E-005
(PID.TID 0000.0001) generate Phyto: np =    2 mQyield    =  4.000000000000000E-005
(PID.TID 0000.0001) generate Phyto: np =    2 chl2cmax     =  0.483023900000000
(PID.TID 0000.0001) generate Phyto: np =    3 FIXED - no DIAZO
(PID.TID 0000.0001) generate Phyto: np =    3 Topt       = -0.108120000000000
(PID.TID 0000.0001) generate Phyto: np =    3 growthdays =  0.400000000000000
(PID.TID 0000.0001) generate Phyto: np =    3 pcmax    =  2.893518518518519E-005
(PID.TID 0000.0001) generate Phyto: np =    3 mQyield    =  4.000000000000000E-005
(PID.TID 0000.0001) generate Phyto: np =    3 chl2cmax     =  0.751286900000000
(PID.TID 0000.0001) generate Phyto: np =    4 FIXED - no DIAZO
(PID.TID 0000.0001) generate Phyto: np =    4 Topt       =   19.9058880000000
(PID.TID 0000.0001) generate Phyto: np =    4 growthdays =  0.400000000000000
(PID.TID 0000.0001) generate Phyto: np =    4 pcmax    =  2.893518518518519E-005
(PID.TID 0000.0001) generate Phyto: np =    4 mQyield    =  4.000000000000000E-005
(PID.TID 0000.0001) generate Phyto: np =    4 chl2cmax     =  0.773187425000000
(PID.TID 0000.0001) generate Phyto: np =    5 FIXED - no DIAZO
(PID.TID 0000.0001) generate Phyto: np =    5 Topt       =   26.5722480000000
(PID.TID 0000.0001) generate Phyto: np =    5 growthdays =  0.700000000000000
(PID.TID 0000.0001) generate Phyto: np =    5 pcmax    =  1.653439153439154E-005
(PID.TID 0000.0001) generate Phyto: np =    5 mQyield    =  4.000000000000000E-005
(PID.TID 0000.0001) generate Phyto: np =    5 chl2cmax     =  0.484896800000000
(PID.TID 0000.0001) generate Phyto: np =    6 FIXED - no DIAZO
(PID.TID 0000.0001) generate Phyto: np =    6 Topt       =   10.9115600000000
(PID.TID 0000.0001) generate Phyto: np =    6 growthdays =  0.700000000000000
(PID.TID 0000.0001) generate Phyto: np =    6 pcmax    =  1.653439153439154E-005
(PID.TID 0000.0001) generate Phyto: np =    6 mQyield    =  4.000000000000000E-005
(PID.TID 0000.0001) generate Phyto: np =    6 chl2cmax     =  0.292228550000000
(PID.TID 0000.0001) generate Phyto: np =    7 FIXED - no DIAZO
(PID.TID 0000.0001) generate Phyto: np =    7 Topt       =   22.3168720000000
(PID.TID 0000.0001) generate Phyto: np =    7 growthdays =  0.700000000000000
(PID.TID 0000.0001) generate Phyto: np =    7 pcmax    =  1.653439153439154E-005
(PID.TID 0000.0001) generate Phyto: np =    7 mQyield    =  4.000000000000000E-005
(PID.TID 0000.0001) generate Phyto: np =    7 chl2cmax     =  0.227707400000000
(PID.TID 0000.0001) generate Phyto: np =    8 FIXED - no DIAZO
(PID.TID 0000.0001) generate Phyto: np =    8 Topt       =   17.3870320000000
(PID.TID 0000.0001) generate Phyto: np =    8 growthdays =  0.700000000000000
(PID.TID 0000.0001) generate Phyto: np =    8 pcmax    =  1.653439153439154E-005
(PID.TID 0000.0001) generate Phyto: np =    8 mQyield    =  4.000000000000000E-005
(PID.TID 0000.0001) generate Phyto: np =    8 chl2cmax     =  0.495783650000000
(PID.TID 0000.0001) generate Phyto: np =    9 FIXED - no DIAZO
(PID.TID 0000.0001) generate Phyto: np =    9 Topt       =   19.3170800000000
(PID.TID 0000.0001) generate Phyto: np =    9 growthdays =  0.700000000000000
(PID.TID 0000.0001) generate Phyto: np =    9 pcmax    =  1.653439153439154E-005
(PID.TID 0000.0001) generate Phyto: np =    9 mQyield    =  4.000000000000000E-005
(PID.TID 0000.0001) generate Phyto: np =    9 chl2cmax     =  0.287002025000000
(PID.TID 0000.0001) generate Phyto: np =   10 FIXED - no DIAZO
(PID.TID 0000.0001) generate Phyto: np =   10 Topt       =   25.6451600000000
(PID.TID 0000.0001) generate Phyto: np =   10 growthdays =  0.700000000000000
(PID.TID 0000.0001) generate Phyto: np =   10 pcmax    =  1.653439153439154E-005
(PID.TID 0000.0001) generate Phyto: np =   10 mQyield    =  4.000000000000000E-005
(PID.TID 0000.0001) generate Phyto: np =   10 chl2cmax     =  0.390946625000000
(PID.TID 0000.0001) generate Phyto: np =   11 FIXED - no DIAZO
(PID.TID 0000.0001) generate Phyto: np =   11 Topt       =   1.89049600000000
(PID.TID 0000.0001) generate Phyto: np =   11 growthdays =  0.700000000000000
(PID.TID 0000.0001) generate Phyto: np =   11 pcmax    =  1.653439153439154E-005
(PID.TID 0000.0001) generate Phyto: np =   11 mQyield    =  4.000000000000000E-005
(PID.TID 0000.0001) generate Phyto: np =   11 chl2cmax     =  0.497375750000000
(PID.TID 0000.0001) generate Phyto: np =   12 FIXED - no DIAZO
(PID.TID 0000.0001) generate Phyto: np =   12 Topt       =   8.54888000000000
(PID.TID 0000.0001) generate Phyto: np =   12 growthdays =  0.700000000000000
(PID.TID 0000.0001) generate Phyto: np =   12 pcmax    =  1.653439153439154E-005
(PID.TID 0000.0001) generate Phyto: np =   12 mQyield    =  4.000000000000000E-005
(PID.TID 0000.0001) generate Phyto: np =   12 chl2cmax     =  0.307689425000000
(PID.TID 0000.0001) generate Phyto: np =   13 FIXED - no DIAZO
(PID.TID 0000.0001) generate Phyto: np =   13 Topt       =   8.32131200000000
(PID.TID 0000.0001) generate Phyto: np =   13 growthdays =  0.400000000000000
(PID.TID 0000.0001) generate Phyto: np =   13 pcmax    =  2.893518518518519E-005
(PID.TID 0000.0001) generate Phyto: np =   13 mQyield    =  4.000000000000000E-005
(PID.TID 0000.0001) generate Phyto: np =   13 chl2cmax     =  0.756662750000000
(PID.TID 0000.0001) generate Phyto: np =   14 FIXED - no DIAZO
(PID.TID 0000.0001) generate Phyto: np =   14 Topt       =  -1.44964800000000
(PID.TID 0000.0001) generate Phyto: np =   14 growthdays =  0.700000000000000
(PID.TID 0000.0001) generate Phyto: np =   14 pcmax    =  1.653439153439154E-005
(PID.TID 0000.0001) generate Phyto: np =   14 mQyield    =  4.000000000000000E-005
(PID.TID 0000.0001) generate Phyto: np =   14 chl2cmax     =  0.398040950000000
(PID.TID 0000.0001) generate Phyto: np =   15 FIXED - no DIAZO
(PID.TID 0000.0001) generate Phyto: np =   15 Topt       =   25.1114480000000
(PID.TID 0000.0001) generate Phyto: np =   15 growthdays =  0.700000000000000
(PID.TID 0000.0001) generate Phyto: np =   15 pcmax    =  1.653439153439154E-005
(PID.TID 0000.0001) generate Phyto: np =   15 mQyield    =  4.000000000000000E-005
(PID.TID 0000.0001) generate Phyto: np =   15 chl2cmax     =  0.256072625000000
(PID.TID 0000.0001) generate Phyto: np =   16 FIXED - no DIAZO
(PID.TID 0000.0001) generate Phyto: np =   16 Topt       =   9.70494400000000
(PID.TID 0000.0001) generate Phyto: np =   16 growthdays =  0.400000000000000
(PID.TID 0000.0001) generate Phyto: np =   16 pcmax    =  2.893518518518519E-005
(PID.TID 0000.0001) generate Phyto: np =   16 mQyield    =  4.000000000000000E-005
(PID.TID 0000.0001) generate Phyto: np =   16 chl2cmax     =  0.714332150000000
(PID.TID 0000.0001) generate Phyto: np =   17 FIXED - no DIAZO
(PID.TID 0000.0001) generate Phyto: np =   17 Topt       =   2.82448800000000
(PID.TID 0000.0001) generate Phyto: np =   17 growthdays =  0.400000000000000
(PID.TID 0000.0001) generate Phyto: np =   17 pcmax    =  2.893518518518519E-005
(PID.TID 0000.0001) generate Phyto: np =   17 mQyield    =  4.000000000000000E-005
(PID.TID 0000.0001) generate Phyto: np =   17 chl2cmax     =  0.625808600000000
(PID.TID 0000.0001) generate Phyto: np =   18 FIXED - no DIAZO
(PID.TID 0000.0001) generate Phyto: np =   18 Topt       =  -1.07979200000000
(PID.TID 0000.0001) generate Phyto: np =   18 growthdays =  0.700000000000000
(PID.TID 0000.0001) generate Phyto: np =   18 pcmax    =  1.653439153439154E-005
(PID.TID 0000.0001) generate Phyto: np =   18 mQyield    =  4.000000000000000E-005
(PID.TID 0000.0001) generate Phyto: np =   18 chl2cmax     =  0.479259500000000
(PID.TID 0000.0001) generate Phyto: np =   19 FIXED - no DIAZO
(PID.TID 0000.0001) generate Phyto: np =   19 Topt       =   18.6432640000000
(PID.TID 0000.0001) generate Phyto: np =   19 growthdays =  0.400000000000000
(PID.TID 0000.0001) generate Phyto: np =   19 pcmax    =  2.893518518518519E-005
(PID.TID 0000.0001) generate Phyto: np =   19 mQyield    =  4.000000000000000E-005
(PID.TID 0000.0001) generate Phyto: np =   19 chl2cmax     =  0.633671300000000
(PID.TID 0000.0001) generate Phyto: np =   20 FIXED - no DIAZO
(PID.TID 0000.0001) generate Phyto: np =   20 Topt       =   7.49262400000000
(PID.TID 0000.0001) generate Phyto: np =   20 growthdays =  0.400000000000000
(PID.TID 0000.0001) generate Phyto: np =   20 pcmax    =  2.893518518518519E-005
(PID.TID 0000.0001) generate Phyto: np =   20 mQyield    =  4.000000000000000E-005
(PID.TID 0000.0001) generate Phyto: np =   20 chl2cmax     =  0.506782025000000
(PID.TID 0000.0001) generate Phyto: np =   21 FIXED - no DIAZO
(PID.TID 0000.0001) generate Phyto: np =   21 Topt       =   17.0827600000000
(PID.TID 0000.0001) generate Phyto: np =   21 growthdays =  0.400000000000000
(PID.TID 0000.0001) generate Phyto: np =   21 pcmax    =  2.893518518518519E-005
(PID.TID 0000.0001) generate Phyto: np =   21 mQyield    =  4.000000000000000E-005
(PID.TID 0000.0001) generate Phyto: np =   21 chl2cmax     =  0.719731850000000
(PID.TID 0000.0001) generate Phyto: np =   22 FIXED - no DIAZO
(PID.TID 0000.0001) generate Phyto: np =   22 Topt       =   22.1358640000000
(PID.TID 0000.0001) generate Phyto: np =   22 growthdays =  0.400000000000000
(PID.TID 0000.0001) generate Phyto: np =   22 pcmax    =  2.893518518518519E-005
(PID.TID 0000.0001) generate Phyto: np =   22 mQyield    =  4.000000000000000E-005
(PID.TID 0000.0001) generate Phyto: np =   22 chl2cmax     =  0.646168925000000
(PID.TID 0000.0001) generate Phyto: np =   23 FIXED - no DIAZO
(PID.TID 0000.0001) generate Phyto: np =   23 Topt       =   11.9965040000000
(PID.TID 0000.0001) generate Phyto: np =   23 growthdays =  0.700000000000000
(PID.TID 0000.0001) generate Phyto: np =   23 pcmax    =  1.653439153439154E-005
(PID.TID 0000.0001) generate Phyto: np =   23 mQyield    =  4.000000000000000E-005
(PID.TID 0000.0001) generate Phyto: np =   23 chl2cmax     =  0.415641800000000
(PID.TID 0000.0001) generate Phyto: np =   24 FIXED - no DIAZO
(PID.TID 0000.0001) generate Phyto: np =   24 Topt       =  -1.09809600000000
(PID.TID 0000.0001) generate Phyto: np =   24 growthdays =  0.400000000000000
(PID.TID 0000.0001) generate Phyto: np =   24 pcmax    =  2.893518518518519E-005
(PID.TID 0000.0001) generate Phyto: np =   24 mQyield    =  4.000000000000000E-005
(PID.TID 0000.0001) generate Phyto: np =   24 chl2cmax     =  0.575974925000000
(PID.TID 0000.0001) generate Phyto: np =   25 FIXED - no DIAZO
(PID.TID 0000.0001) generate Phyto: np =   25 Topt       =   11.8637920000000
(PID.TID 0000.0001) generate Phyto: np =   25 growthdays =  0.700000000000000
(PID.TID 0000.0001) generate Phyto: np =   25 pcmax    =  1.653439153439154E-005
(PID.TID 0000.0001) generate Phyto: np =   25 mQyield    =  4.000000000000000E-005
(PID.TID 0000.0001) generate Phyto: np =   25 chl2cmax     =  0.314064875000000
(PID.TID 0000.0001) generate Phyto: np =   26 FIXED - no DIAZO
(PID.TID 0000.0001) generate Phyto: np =   26 Topt       =   4.43760800000000
(PID.TID 0000.0001) generate Phyto: np =   26 growthdays =  0.700000000000000
(PID.TID 0000.0001) generate Phyto: np =   26 pcmax    =  1.653439153439154E-005
(PID.TID 0000.0001) generate Phyto: np =   26 mQyield    =  4.000000000000000E-005
(PID.TID 0000.0001) generate Phyto: np =   26 chl2cmax     =  0.494277350000000
(PID.TID 0000.0001) generate Phyto: np =   27 FIXED - no DIAZO
(PID.TID 0000.0001) generate Phyto: np =   27 Topt       =   3.55384000000000
(PID.TID 0000.0001) generate Phyto: np =   27 growthdays =  0.700000000000000
(PID.TID 0000.0001) generate Phyto: np =   27 pcmax    =  1.653439153439154E-005
(PID.TID 0000.0001) generate Phyto: np =   27 mQyield    =  4.000000000000000E-005
(PID.TID 0000.0001) generate Phyto: np =   27 chl2cmax     =  0.309647300000000
(PID.TID 0000.0001) generate Phyto: np =   28 FIXED - no DIAZO
(PID.TID 0000.0001) generate Phyto: np =   28 Topt       =   5.15795200000000
(PID.TID 0000.0001) generate Phyto: np =   28 growthdays =  0.700000000000000
(PID.TID 0000.0001) generate Phyto: np =   28 pcmax    =  1.653439153439154E-005
(PID.TID 0000.0001) generate Phyto: np =   28 mQyield    =  4.000000000000000E-005
(PID.TID 0000.0001) generate Phyto: np =   28 chl2cmax     =  0.287763425000000
(PID.TID 0000.0001) generate Phyto: np =   29 FIXED - no DIAZO
(PID.TID 0000.0001) generate Phyto: np =   29 Topt       =   26.0720400000000
(PID.TID 0000.0001) generate Phyto: np =   29 growthdays =  0.400000000000000
(PID.TID 0000.0001) generate Phyto: np =   29 pcmax    =  2.893518518518519E-005
(PID.TID 0000.0001) generate Phyto: np =   29 mQyield    =  4.000000000000000E-005
(PID.TID 0000.0001) generate Phyto: np =   29 chl2cmax     =  0.686762975000000
(PID.TID 0000.0001) generate Phyto: np =   30 FIXED - no DIAZO
(PID.TID 0000.0001) generate Phyto: np =   30 Topt       =   3.09988800000000
(PID.TID 0000.0001) generate Phyto: np =   30 growthdays =  0.700000000000000
(PID.TID 0000.0001) generate Phyto: np =   30 pcmax    =  1.653439153439154E-005
(PID.TID 0000.0001) generate Phyto: np =   30 mQyield    =  4.000000000000000E-005
(PID.TID 0000.0001) generate Phyto: np =   30 chl2cmax     =  0.389302775000000
(PID.TID 0000.0001) generate Phyto: np =   31 FIXED - no DIAZO
(PID.TID 0000.0001) generate Phyto: np =   31 Topt       =   28.4102240000000
(PID.TID 0000.0001) generate Phyto: np =   31 growthdays =  0.400000000000000
(PID.TID 0000.0001) generate Phyto: np =   31 pcmax    =  2.893518518518519E-005
(PID.TID 0000.0001) generate Phyto: np =   31 mQyield    =  4.000000000000000E-005
(PID.TID 0000.0001) generate Phyto: np =   31 chl2cmax     =  0.635593850000000
(PID.TID 0000.0001) generate Phyto: np =   32 FIXED - no DIAZO
(PID.TID 0000.0001) generate Phyto: np =   32 Topt       =   22.6576240000000
(PID.TID 0000.0001) generate Phyto: np =   32 growthdays =  0.700000000000000
(PID.TID 0000.0001) generate Phyto: np =   32 pcmax    =  1.653439153439154E-005
(PID.TID 0000.0001) generate Phyto: np =   32 mQyield    =  4.000000000000000E-005
(PID.TID 0000.0001) generate Phyto: np =   32 chl2cmax     =  0.247226675000000
(PID.TID 0000.0001) generate Phyto: np =   33 FIXED - no DIAZO
(PID.TID 0000.0001) generate Phyto: np =   33 Topt       =   19.0697360000000
(PID.TID 0000.0001) generate Phyto: np =   33 growthdays =  0.400000000000000
(PID.TID 0000.0001) generate Phyto: np =   33 pcmax    =  2.893518518518519E-005
(PID.TID 0000.0001) generate Phyto: np =   33 mQyield    =  4.000000000000000E-005
(PID.TID 0000.0001) generate Phyto: np =   33 chl2cmax     =  0.603431375000000
(PID.TID 0000.0001) generate Phyto: np =   34 FIXED - no DIAZO
(PID.TID 0000.0001) generate Phyto: np =   34 Topt       =   27.8709280000000
(PID.TID 0000.0001) generate Phyto: np =   34 growthdays =  0.700000000000000
(PID.TID 0000.0001) generate Phyto: np =   34 pcmax    =  1.653439153439154E-005
(PID.TID 0000.0001) generate Phyto: np =   34 mQyield    =  4.000000000000000E-005
(PID.TID 0000.0001) generate Phyto: np =   34 chl2cmax     =  0.382410200000000
(PID.TID 0000.0001) generate Phyto: np =   35 FIXED - no DIAZO
(PID.TID 0000.0001) generate Phyto: np =   35 Topt       =  0.777320000000000
(PID.TID 0000.0001) generate Phyto: np =   35 growthdays =  0.700000000000000
(PID.TID 0000.0001) generate Phyto: np =   35 pcmax    =  1.653439153439154E-005
(PID.TID 0000.0001) generate Phyto: np =   35 mQyield    =  4.000000000000000E-005
(PID.TID 0000.0001) generate Phyto: np =   35 chl2cmax     =  0.495746450000000
(PID.TID 0000.0001) generate Phyto: np =   36 FIXED - no DIAZO
(PID.TID 0000.0001) generate Phyto: np =   36 Topt       =  -1.03322400000000
(PID.TID 0000.0001) generate Phyto: np =   36 growthdays =  0.400000000000000
(PID.TID 0000.0001) generate Phyto: np =   36 pcmax    =  2.893518518518519E-005
(PID.TID 0000.0001) generate Phyto: np =   36 mQyield    =  4.000000000000000E-005
(PID.TID 0000.0001) generate Phyto: np =   36 chl2cmax     =  0.695873375000000
(PID.TID 0000.0001) generate Phyto: np =   37 FIXED - no DIAZO
(PID.TID 0000.0001) generate Phyto: np =   37 Topt       =  -1.73181600000000
(PID.TID 0000.0001) generate Phyto: np =   37 growthdays =  0.700000000000000
(PID.TID 0000.0001) generate Phyto: np =   37 pcmax    =  1.653439153439154E-005
(PID.TID 0000.0001) generate Phyto: np =   37 mQyield    =  4.000000000000000E-005
(PID.TID 0000.0001) generate Phyto: np =   37 chl2cmax     =  0.331940600000000
(PID.TID 0000.0001) generate Phyto: np =   38 FIXED - no DIAZO
(PID.TID 0000.0001) generate Phyto: np =   38 Topt       =  0.254632000000001
(PID.TID 0000.0001) generate Phyto: np =   38 growthdays =  0.700000000000000
(PID.TID 0000.0001) generate Phyto: np =   38 pcmax    =  1.653439153439154E-005
(PID.TID 0000.0001) generate Phyto: np =   38 mQyield    =  4.000000000000000E-005
(PID.TID 0000.0001) generate Phyto: np =   38 chl2cmax     =  0.384557225000000
(PID.TID 0000.0001) generate Phyto: np =   39 FIXED - no DIAZO
(PID.TID 0000.0001) generate Phyto: np =   39 Topt       = -0.567000000000000
(PID.TID 0000.0001) generate Phyto: np =   39 growthdays =  0.700000000000000
(PID.TID 0000.0001) generate Phyto: np =   39 pcmax    =  1.653439153439154E-005
(PID.TID 0000.0001) generate Phyto: np =   39 mQyield    =  4.000000000000000E-005
(PID.TID 0000.0001) generate Phyto: np =   39 chl2cmax     =  0.470911175000000
(PID.TID 0000.0001) generate Phyto: np =   40 FIXED - no DIAZO
(PID.TID 0000.0001) generate Phyto: np =   40 Topt       =   9.69444000000000
(PID.TID 0000.0001) generate Phyto: np =   40 growthdays =  0.400000000000000
(PID.TID 0000.0001) generate Phyto: np =   40 pcmax    =  2.893518518518519E-005
(PID.TID 0000.0001) generate Phyto: np =   40 mQyield    =  4.000000000000000E-005
(PID.TID 0000.0001) generate Phyto: np =   40 chl2cmax     =  0.668755475000000
(PID.TID 0000.0001) generate Phyto: np =   41 FIXED - no DIAZO
(PID.TID 0000.0001) generate Phyto: np =   41 Topt       =   12.7530160000000
(PID.TID 0000.0001) generate Phyto: np =   41 growthdays =  0.700000000000000
(PID.TID 0000.0001) generate Phyto: np =   41 pcmax    =  1.653439153439154E-005
(PID.TID 0000.0001) generate Phyto: np =   41 mQyield    =  4.000000000000000E-005
(PID.TID 0000.0001) generate Phyto: np =   41 chl2cmax     =  0.443049875000000
(PID.TID 0000.0001) generate Phyto: np =   42 FIXED - no DIAZO
(PID.TID 0000.0001) generate Phyto: np =   42 Topt       =   10.1685360000000
(PID.TID 0000.0001) generate Phyto: np =   42 growthdays =  0.400000000000000
(PID.TID 0000.0001) generate Phyto: np =   42 pcmax    =  2.893518518518519E-005
(PID.TID 0000.0001) generate Phyto: np =   42 mQyield    =  4.000000000000000E-005
(PID.TID 0000.0001) generate Phyto: np =   42 chl2cmax     =  0.762343775000000
(PID.TID 0000.0001) generate Phyto: np =   43 FIXED - no DIAZO
(PID.TID 0000.0001) generate Phyto: np =   43 Topt       =   16.6858720000000
(PID.TID 0000.0001) generate Phyto: np =   43 growthdays =  0.700000000000000
(PID.TID 0000.0001) generate Phyto: np =   43 pcmax    =  1.653439153439154E-005
(PID.TID 0000.0001) generate Phyto: np =   43 mQyield    =  4.000000000000000E-005
(PID.TID 0000.0001) generate Phyto: np =   43 chl2cmax     =  0.295399250000000
(PID.TID 0000.0001) generate Phyto: np =   44 FIXED - no DIAZO
(PID.TID 0000.0001) generate Phyto: np =   44 Topt       =   7.14277600000000
(PID.TID 0000.0001) generate Phyto: np =   44 growthdays =  0.400000000000000
(PID.TID 0000.0001) generate Phyto: np =   44 pcmax    =  2.893518518518519E-005
(PID.TID 0000.0001) generate Phyto: np =   44 mQyield    =  4.000000000000000E-005
(PID.TID 0000.0001) generate Phyto: np =   44 chl2cmax     =  0.624172625000000
(PID.TID 0000.0001) generate Phyto: np =   45 FIXED - no DIAZO
(PID.TID 0000.0001) generate Phyto: np =   45 Topt       =   29.8943440000000
(PID.TID 0000.0001) generate Phyto: np =   45 growthdays =  0.700000000000000
(PID.TID 0000.0001) generate Phyto: np =   45 pcmax    =  1.653439153439154E-005
(PID.TID 0000.0001) generate Phyto: np =   45 mQyield    =  4.000000000000000E-005
(PID.TID 0000.0001) generate Phyto: np =   45 chl2cmax     =  0.376622525000000
(PID.TID 0000.0001) generate Phyto: np =   46 FIXED - no DIAZO
(PID.TID 0000.0001) generate Phyto: np =   46 Topt       =   27.3104160000000
(PID.TID 0000.0001) generate Phyto: np =   46 growthdays =  0.400000000000000
(PID.TID 0000.0001) generate Phyto: np =   46 pcmax    =  2.893518518518519E-005
(PID.TID 0000.0001) generate Phyto: np =   46 mQyield    =  4.000000000000000E-005
(PID.TID 0000.0001) generate Phyto: np =   46 chl2cmax     =  0.518760350000000
(PID.TID 0000.0001) generate Phyto: np =   47 FIXED - no DIAZO
(PID.TID 0000.0001) generate Phyto: np =   47 Topt       =   3.52560800000000
(PID.TID 0000.0001) generate Phyto: np =   47 growthdays =  0.400000000000000
(PID.TID 0000.0001) generate Phyto: np =   47 pcmax    =  2.893518518518519E-005
(PID.TID 0000.0001) generate Phyto: np =   47 mQyield    =  4.000000000000000E-005
(PID.TID 0000.0001) generate Phyto: np =   47 chl2cmax     =  0.619622825000000
(PID.TID 0000.0001) generate Phyto: np =   48 FIXED - no DIAZO
(PID.TID 0000.0001) generate Phyto: np =   48 Topt       =   9.14388000000000
(PID.TID 0000.0001) generate Phyto: np =   48 growthdays =  0.400000000000000
(PID.TID 0000.0001) generate Phyto: np =   48 pcmax    =  2.893518518518519E-005
(PID.TID 0000.0001) generate Phyto: np =   48 mQyield    =  4.000000000000000E-005
(PID.TID 0000.0001) generate Phyto: np =   48 chl2cmax     =  0.714249500000000
(PID.TID 0000.0001) generate Phyto: np =   49 FIXED - no DIAZO
(PID.TID 0000.0001) generate Phyto: np =   49 Topt       =   3.68870400000000
(PID.TID 0000.0001) generate Phyto: np =   49 growthdays =  0.400000000000000
(PID.TID 0000.0001) generate Phyto: np =   49 pcmax    =  2.893518518518519E-005
(PID.TID 0000.0001) generate Phyto: np =   49 mQyield    =  4.000000000000000E-005
(PID.TID 0000.0001) generate Phyto: np =   49 chl2cmax     =  0.532761200000000
(PID.TID 0000.0001) generate Phyto: np =   50 FIXED - no DIAZO
(PID.TID 0000.0001) generate Phyto: np =   50 Topt       =   21.1940640000000
(PID.TID 0000.0001) generate Phyto: np =   50 growthdays =  0.700000000000000
(PID.TID 0000.0001) generate Phyto: np =   50 pcmax    =  1.653439153439154E-005
(PID.TID 0000.0001) generate Phyto: np =   50 mQyield    =  4.000000000000000E-005
(PID.TID 0000.0001) generate Phyto: np =   50 chl2cmax     =  0.381325700000000
(PID.TID 0000.0001) generate Phyto: np =   51 FIXED - no DIAZO
(PID.TID 0000.0001) generate Phyto: np =   51 Topt       =  0.431600000000003
(PID.TID 0000.0001) generate Phyto: np =   51 growthdays =  0.700000000000000
(PID.TID 0000.0001) generate Phyto: np =   51 pcmax    =  1.653439153439154E-005
(PID.TID 0000.0001) generate Phyto: np =   51 mQyield    =  4.000000000000000E-005
(PID.TID 0000.0001) generate Phyto: np =   51 chl2cmax     =  0.222759200000000
(PID.TID 0000.0001) generate Phyto: np =   52 FIXED - no DIAZO
(PID.TID 0000.0001) generate Phyto: np =   52 Topt       =   8.85945600000000
(PID.TID 0000.0001) generate Phyto: np =   52 growthdays =  0.400000000000000
(PID.TID 0000.0001) generate Phyto: np =   52 pcmax    =  2.893518518518519E-005
(PID.TID 0000.0001) generate Phyto: np =   52 mQyield    =  4.000000000000000E-005
(PID.TID 0000.0001) generate Phyto: np =   52 chl2cmax     =  0.636988700000000
(PID.TID 0000.0001) generate Phyto: np =   53 FIXED - no DIAZO
(PID.TID 0000.0001) generate Phyto: np =   53 Topt       =   10.5571360000000
(PID.TID 0000.0001) generate Phyto: np =   53 growthdays =  0.400000000000000
(PID.TID 0000.0001) generate Phyto: np =   53 pcmax    =  2.893518518518519E-005
(PID.TID 0000.0001) generate Phyto: np =   53 mQyield    =  4.000000000000000E-005
(PID.TID 0000.0001) generate Phyto: np =   53 chl2cmax     =  0.752697950000000
(PID.TID 0000.0001) generate Phyto: np =   54 FIXED - no DIAZO
(PID.TID 0000.0001) generate Phyto: np =   54 Topt       =   3.80619200000000
(PID.TID 0000.0001) generate Phyto: np =   54 growthdays =  0.400000000000000
(PID.TID 0000.0001) generate Phyto: np =   54 pcmax    =  2.893518518518519E-005
(PID.TID 0000.0001) generate Phyto: np =   54 mQyield    =  4.000000000000000E-005
(PID.TID 0000.0001) generate Phyto: np =   54 chl2cmax     =  0.518611250000000
(PID.TID 0000.0001) generate Phyto: np =   55 FIXED - no DIAZO
(PID.TID 0000.0001) generate Phyto: np =   55 Topt       =   22.4931440000000
(PID.TID 0000.0001) generate Phyto: np =   55 growthdays =  0.400000000000000
(PID.TID 0000.0001) generate Phyto: np =   55 pcmax    =  2.893518518518519E-005
(PID.TID 0000.0001) generate Phyto: np =   55 mQyield    =  4.000000000000000E-005
(PID.TID 0000.0001) generate Phyto: np =   55 chl2cmax     =  0.578082800000000
(PID.TID 0000.0001) generate Phyto: np =   56 FIXED - no DIAZO
(PID.TID 0000.0001) generate Phyto: np =   56 Topt       =  -1.52951200000000
(PID.TID 0000.0001) generate Phyto: np =   56 growthdays =  0.400000000000000
(PID.TID 0000.0001) generate Phyto: np =   56 pcmax    =  2.893518518518519E-005
(PID.TID 0000.0001) generate Phyto: np =   56 mQyield    =  4.000000000000000E-005
(PID.TID 0000.0001) generate Phyto: np =   56 chl2cmax     =  0.616260800000000
(PID.TID 0000.0001) generate Phyto: np =   57 FIXED - no DIAZO
(PID.TID 0000.0001) generate Phyto: np =   57 Topt       =   29.4059760000000
(PID.TID 0000.0001) generate Phyto: np =   57 growthdays =  0.400000000000000
(PID.TID 0000.0001) generate Phyto: np =   57 pcmax    =  2.893518518518519E-005
(PID.TID 0000.0001) generate Phyto: np =   57 mQyield    =  4.000000000000000E-005
(PID.TID 0000.0001) generate Phyto: np =   57 chl2cmax     =  0.681634625000000
(PID.TID 0000.0001) generate Phyto: np =   58 FIXED - no DIAZO
(PID.TID 0000.0001) generate Phyto: np =   58 Topt       =   17.9400080000000
(PID.TID 0000.0001) generate Phyto: np =   58 growthdays =  0.400000000000000
(PID.TID 0000.0001) generate Phyto: np =   58 pcmax    =  2.893518518518519E-005
(PID.TID 0000.0001) generate Phyto: np =   58 mQyield    =  4.000000000000000E-005
(PID.TID 0000.0001) generate Phyto: np =   58 chl2cmax     =  0.694168025000000
(PID.TID 0000.0001) generate Phyto: np =   59 FIXED - no DIAZO
(PID.TID 0000.0001) generate Phyto: np =   59 Topt       =   14.2570160000000
(PID.TID 0000.0001) generate Phyto: np =   59 growthdays =  0.400000000000000
(PID.TID 0000.0001) generate Phyto: np =   59 pcmax    =  2.893518518518519E-005
(PID.TID 0000.0001) generate Phyto: np =   59 mQyield    =  4.000000000000000E-005
(PID.TID 0000.0001) generate Phyto: np =   59 chl2cmax     =  0.537051275000000
(PID.TID 0000.0001) generate Phyto: np =   60 FIXED - no DIAZO
(PID.TID 0000.0001) generate Phyto: np =   60 Topt       =   17.3639120000000
(PID.TID 0000.0001) generate Phyto: np =   60 growthdays =  0.400000000000000
(PID.TID 0000.0001) generate Phyto: np =   60 pcmax    =  2.893518518518519E-005
(PID.TID 0000.0001) generate Phyto: np =   60 mQyield    =  4.000000000000000E-005
(PID.TID 0000.0001) generate Phyto: np =   60 chl2cmax     =  0.644521550000000
(PID.TID 0000.0001) generate Phyto: np =   61 FIXED - no DIAZO
(PID.TID 0000.0001) generate Phyto: np =   61 Topt       = -7.710399999999851E-002
(PID.TID 0000.0001) generate Phyto: np =   61 growthdays =  0.400000000000000
(PID.TID 0000.0001) generate Phyto: np =   61 pcmax    =  2.893518518518519E-005
(PID.TID 0000.0001) generate Phyto: np =   61 mQyield    =  4.000000000000000E-005
(PID.TID 0000.0001) generate Phyto: np =   61 chl2cmax     =  0.707941400000000
(PID.TID 0000.0001) generate Phyto: np =   62 FIXED - no DIAZO
(PID.TID 0000.0001) generate Phyto: np =   62 Topt       =   9.24014400000000
(PID.TID 0000.0001) generate Phyto: np =   62 growthdays =  0.400000000000000
(PID.TID 0000.0001) generate Phyto: np =   62 pcmax    =  2.893518518518519E-005
(PID.TID 0000.0001) generate Phyto: np =   62 mQyield    =  4.000000000000000E-005
(PID.TID 0000.0001) generate Phyto: np =   62 chl2cmax     =  0.764815925000000
(PID.TID 0000.0001) generate Phyto: np =   63 FIXED - no DIAZO
(PID.TID 0000.0001) generate Phyto: np =   63 Topt       =   19.9054880000000
(PID.TID 0000.0001) generate Phyto: np =   63 growthdays =  0.400000000000000
(PID.TID 0000.0001) generate Phyto: np =   63 pcmax    =  2.893518518518519E-005
(PID.TID 0000.0001) generate Phyto: np =   63 mQyield    =  4.000000000000000E-005
(PID.TID 0000.0001) generate Phyto: np =   63 chl2cmax     =  0.725979050000000
(PID.TID 0000.0001) generate Phyto: np =   64 FIXED - no DIAZO
(PID.TID 0000.0001) generate Phyto: np =   64 Topt       =   1.24675200000000
(PID.TID 0000.0001) generate Phyto: np =   64 growthdays =  0.700000000000000
(PID.TID 0000.0001) generate Phyto: np =   64 pcmax    =  1.653439153439154E-005
(PID.TID 0000.0001) generate Phyto: np =   64 mQyield    =  4.000000000000000E-005
(PID.TID 0000.0001) generate Phyto: np =   64 chl2cmax     =  0.484357400000000
(PID.TID 0000.0001) generate Phyto: np =   65 FIXED - no DIAZO
(PID.TID 0000.0001) generate Phyto: np =   65 Topt       =   14.2046800000000
(PID.TID 0000.0001) generate Phyto: np =   65 growthdays =  0.400000000000000
(PID.TID 0000.0001) generate Phyto: np =   65 pcmax    =  2.893518518518519E-005
(PID.TID 0000.0001) generate Phyto: np =   65 mQyield    =  4.000000000000000E-005
(PID.TID 0000.0001) generate Phyto: np =   65 chl2cmax     =  0.763799750000000
(PID.TID 0000.0001) generate Phyto: np =   66 FIXED - no DIAZO
(PID.TID 0000.0001) generate Phyto: np =   66 Topt       =  0.759576000000003
(PID.TID 0000.0001) generate Phyto: np =   66 growthdays =  0.700000000000000
(PID.TID 0000.0001) generate Phyto: np =   66 pcmax    =  1.653439153439154E-005
(PID.TID 0000.0001) generate Phyto: np =   66 mQyield    =  4.000000000000000E-005
(PID.TID 0000.0001) generate Phyto: np =   66 chl2cmax     =  0.352132025000000
(PID.TID 0000.0001) generate Phyto: np =   67 FIXED - no DIAZO
(PID.TID 0000.0001) generate Phyto: np =   67 Topt       =   3.77004000000000
(PID.TID 0000.0001) generate Phyto: np =   67 growthdays =  0.400000000000000
(PID.TID 0000.0001) generate Phyto: np =   67 pcmax    =  2.893518518518519E-005
(PID.TID 0000.0001) generate Phyto: np =   67 mQyield    =  4.000000000000000E-005
(PID.TID 0000.0001) generate Phyto: np =   67 chl2cmax     =  0.757367600000000
(PID.TID 0000.0001) generate Phyto: np =   68 FIXED - no DIAZO
(PID.TID 0000.0001) generate Phyto: np =   68 Topt       =   17.4741680000000
(PID.TID 0000.0001) generate Phyto: np =   68 growthdays =  0.400000000000000
(PID.TID 0000.0001) generate Phyto: np =   68 pcmax    =  2.893518518518519E-005
(PID.TID 0000.0001) generate Phyto: np =   68 mQyield    =  4.000000000000000E-005
(PID.TID 0000.0001) generate Phyto: np =   68 chl2cmax     =  0.725907800000000
(PID.TID 0000.0001) generate Phyto: np =   69 FIXED - no DIAZO
(PID.TID 0000.0001) generate Phyto: np =   69 Topt       =   25.3641360000000
(PID.TID 0000.0001) generate Phyto: np =   69 growthdays =  0.700000000000000
(PID.TID 0000.0001) generate Phyto: np =   69 pcmax    =  1.653439153439154E-005
(PID.TID 0000.0001) generate Phyto: np =   69 mQyield    =  4.000000000000000E-005
(PID.TID 0000.0001) generate Phyto: np =   69 chl2cmax     =  0.455242175000000
(PID.TID 0000.0001) generate Phyto: np =   70 FIXED - no DIAZO
(PID.TID 0000.0001) generate Phyto: np =   70 Topt       =   5.18268800000000
(PID.TID 0000.0001) generate Phyto: np =   70 growthdays =  0.700000000000000
(PID.TID 0000.0001) generate Phyto: np =   70 pcmax    =  1.653439153439154E-005
(PID.TID 0000.0001) generate Phyto: np =   70 mQyield    =  4.000000000000000E-005
(PID.TID 0000.0001) generate Phyto: np =   70 chl2cmax     =  0.486940625000000
(PID.TID 0000.0001) generate Phyto: np =   71 FIXED - no DIAZO
(PID.TID 0000.0001) generate Phyto: np =   71 Topt       =   14.8351920000000
(PID.TID 0000.0001) generate Phyto: np =   71 growthdays =  0.700000000000000
(PID.TID 0000.0001) generate Phyto: np =   71 pcmax    =  1.653439153439154E-005
(PID.TID 0000.0001) generate Phyto: np =   71 mQyield    =  4.000000000000000E-005
(PID.TID 0000.0001) generate Phyto: np =   71 chl2cmax     =  0.239861075000000
(PID.TID 0000.0001) generate Phyto: np =   72 FIXED - no DIAZO
(PID.TID 0000.0001) generate Phyto: np =   72 Topt       =   8.32481600000000
(PID.TID 0000.0001) generate Phyto: np =   72 growthdays =  0.400000000000000
(PID.TID 0000.0001) generate Phyto: np =   72 pcmax    =  2.893518518518519E-005
(PID.TID 0000.0001) generate Phyto: np =   72 mQyield    =  4.000000000000000E-005
(PID.TID 0000.0001) generate Phyto: np =   72 chl2cmax     =  0.627905225000000
(PID.TID 0000.0001) generate Phyto: np =   73 FIXED - no DIAZO
(PID.TID 0000.0001) generate Phyto: np =   73 Topt       = -0.499711999999999
(PID.TID 0000.0001) generate Phyto: np =   73 growthdays =  0.700000000000000
(PID.TID 0000.0001) generate Phyto: np =   73 pcmax    =  1.653439153439154E-005
(PID.TID 0000.0001) generate Phyto: np =   73 mQyield    =  4.000000000000000E-005
(PID.TID 0000.0001) generate Phyto: np =   73 chl2cmax     =  0.353622125000000
(PID.TID 0000.0001) generate Phyto: np =   74 FIXED - no DIAZO
(PID.TID 0000.0001) generate Phyto: np =   74 Topt       =   17.2937920000000
(PID.TID 0000.0001) generate Phyto: np =   74 growthdays =  0.400000000000000
(PID.TID 0000.0001) generate Phyto: np =   74 pcmax    =  2.893518518518519E-005
(PID.TID 0000.0001) generate Phyto: np =   74 mQyield    =  4.000000000000000E-005
(PID.TID 0000.0001) generate Phyto: np =   74 chl2cmax     =  0.647195900000000
(PID.TID 0000.0001) generate Phyto: np =   75 FIXED - no DIAZO
(PID.TID 0000.0001) generate Phyto: np =   75 Topt       = -0.778447999999997
(PID.TID 0000.0001) generate Phyto: np =   75 growthdays =  0.400000000000000
(PID.TID 0000.0001) generate Phyto: np =   75 pcmax    =  2.893518518518519E-005
(PID.TID 0000.0001) generate Phyto: np =   75 mQyield    =  4.000000000000000E-005
(PID.TID 0000.0001) generate Phyto: np =   75 chl2cmax     =  0.715542125000000
(PID.TID 0000.0001) generate Phyto: np =   76 FIXED - no DIAZO
(PID.TID 0000.0001) generate Phyto: np =   76 Topt       =   24.0257120000000
(PID.TID 0000.0001) generate Phyto: np =   76 growthdays =  0.400000000000000
(PID.TID 0000.0001) generate Phyto: np =   76 pcmax    =  2.893518518518519E-005
(PID.TID 0000.0001) generate Phyto: np =   76 mQyield    =  4.000000000000000E-005
(PID.TID 0000.0001) generate Phyto: np =   76 chl2cmax     =  0.555139775000000
(PID.TID 0000.0001) generate Phyto: np =   77 FIXED - no DIAZO
(PID.TID 0000.0001) generate Phyto: np =   77 Topt       =   16.1770320000000
(PID.TID 0000.0001) generate Phyto: np =   77 growthdays =  0.400000000000000
(PID.TID 0000.0001) generate Phyto: np =   77 pcmax    =  2.893518518518519E-005
(PID.TID 0000.0001) generate Phyto: np =   77 mQyield    =  4.000000000000000E-005
(PID.TID 0000.0001) generate Phyto: np =   77 chl2cmax     =  0.529730300000000
(PID.TID 0000.0001) generate Phyto: np =   78 FIXED - no DIAZO
(PID.TID 0000.0001) generate Phyto: np =   78 Topt       =   28.0139360000000
(PID.TID 0000.0001) generate Phyto: np =   78 growthdays =  0.700000000000000
(PID.TID 0000.0001) generate Phyto: np =   78 pcmax    =  1.653439153439154E-005
(PID.TID 0000.0001) generate Phyto: np =   78 mQyield    =  4.000000000000000E-005
(PID.TID 0000.0001) generate Phyto: np =   78 chl2cmax     =  0.451174925000000
(PID.TID 0000.0001) QQ start timeave
(PID.TID 0000.0001) // =======================================================
(PID.TID 0000.0001) // Darwin init variables >>> END <<<
(PID.TID 0000.0001) // =======================================================
(PID.TID 0000.0001) // =======================================================
(PID.TID 0000.0001) // Model current state
(PID.TID 0000.0001) // =======================================================
(PID.TID 0000.0001) 
(PID.TID 0000.0001) // =======================================================
(PID.TID 0000.0001) // Begin MONITOR dynamic field statistics
(PID.TID 0000.0001) // =======================================================
(PID.TID 0000.0001) %MON time_tsnumber                =                     0
(PID.TID 0000.0001) %MON time_secondsf                =   0.0000000000000E+00
(PID.TID 0000.0001) %MON dynstat_eta_max              =   0.0000000000000E+00
(PID.TID 0000.0001) %MON dynstat_eta_min              =   0.0000000000000E+00
(PID.TID 0000.0001) %MON dynstat_eta_mean             =   0.0000000000000E+00
(PID.TID 0000.0001) %MON dynstat_eta_sd               =   0.0000000000000E+00
(PID.TID 0000.0001) %MON dynstat_eta_del2             =   0.0000000000000E+00
(PID.TID 0000.0001) %MON dynstat_uvel_max             =   0.0000000000000E+00
(PID.TID 0000.0001) %MON dynstat_uvel_min             =   0.0000000000000E+00
(PID.TID 0000.0001) %MON dynstat_uvel_mean            =   0.0000000000000E+00
(PID.TID 0000.0001) %MON dynstat_uvel_sd              =   0.0000000000000E+00
(PID.TID 0000.0001) %MON dynstat_uvel_del2            =   0.0000000000000E+00
(PID.TID 0000.0001) %MON dynstat_vvel_max             =   0.0000000000000E+00
(PID.TID 0000.0001) %MON dynstat_vvel_min             =   0.0000000000000E+00
(PID.TID 0000.0001) %MON dynstat_vvel_mean            =   0.0000000000000E+00
(PID.TID 0000.0001) %MON dynstat_vvel_sd              =   0.0000000000000E+00
(PID.TID 0000.0001) %MON dynstat_vvel_del2            =   0.0000000000000E+00
(PID.TID 0000.0001) %MON dynstat_wvel_max             =   0.0000000000000E+00
(PID.TID 0000.0001) %MON dynstat_wvel_min             =   0.0000000000000E+00
(PID.TID 0000.0001) %MON dynstat_wvel_mean            =   0.0000000000000E+00
(PID.TID 0000.0001) %MON dynstat_wvel_sd              =   0.0000000000000E+00
(PID.TID 0000.0001) %MON dynstat_wvel_del2            =   0.0000000000000E+00
(PID.TID 0000.0001) %MON dynstat_theta_max            =   2.6345800399780E+01
(PID.TID 0000.0001) %MON dynstat_theta_min            =   2.6737000942230E+00
(PID.TID 0000.0001) %MON dynstat_theta_mean           =   5.4735936027058E+00
(PID.TID 0000.0001) %MON dynstat_theta_sd             =   5.1972090828105E+00
(PID.TID 0000.0001) %MON dynstat_theta_del2           =   0.0000000000000E+00
(PID.TID 0000.0001) %MON dynstat_salt_max             =   3.5000000000000E+01
(PID.TID 0000.0001) %MON dynstat_salt_min             =   3.5000000000000E+01
(PID.TID 0000.0001) %MON dynstat_salt_mean            =   3.5000000000000E+01
(PID.TID 0000.0001) %MON dynstat_salt_sd              =   7.1054273576010E-15
(PID.TID 0000.0001) %MON dynstat_salt_del2            =   0.0000000000000E+00
(PID.TID 0000.0001) %MON dynstat_sst_max              =   2.6345800399780E+01
(PID.TID 0000.0001) %MON dynstat_sst_min              =   2.6345800399780E+01
(PID.TID 0000.0001) %MON dynstat_sst_mean             =   2.6345800399780E+01
(PID.TID 0000.0001) %MON dynstat_sst_sd               =   0.0000000000000E+00
(PID.TID 0000.0001) %MON dynstat_sst_del2             =   0.0000000000000E+00
(PID.TID 0000.0001) %MON dynstat_sss_max              =   3.5000000000000E+01
(PID.TID 0000.0001) %MON dynstat_sss_min              =   3.5000000000000E+01
(PID.TID 0000.0001) %MON dynstat_sss_mean             =   3.5000000000000E+01
(PID.TID 0000.0001) %MON dynstat_sss_sd               =   0.0000000000000E+00
(PID.TID 0000.0001) %MON dynstat_sss_del2             =   0.0000000000000E+00
(PID.TID 0000.0001) %MON forcing_qnet_max             =   0.0000000000000E+00
(PID.TID 0000.0001) %MON forcing_qnet_min             =   0.0000000000000E+00
(PID.TID 0000.0001) %MON forcing_qnet_mean            =   0.0000000000000E+00
(PID.TID 0000.0001) %MON forcing_qnet_sd              =   0.0000000000000E+00
(PID.TID 0000.0001) %MON forcing_qnet_del2            =   0.0000000000000E+00
(PID.TID 0000.0001) %MON forcing_qsw_max              =   0.0000000000000E+00
(PID.TID 0000.0001) %MON forcing_qsw_min              =   0.0000000000000E+00
(PID.TID 0000.0001) %MON forcing_qsw_mean             =   0.0000000000000E+00
(PID.TID 0000.0001) %MON forcing_qsw_sd               =   0.0000000000000E+00
(PID.TID 0000.0001) %MON forcing_qsw_del2             =   0.0000000000000E+00
(PID.TID 0000.0001) %MON forcing_empmr_max            =   0.0000000000000E+00
(PID.TID 0000.0001) %MON forcing_empmr_min            =   0.0000000000000E+00
(PID.TID 0000.0001) %MON forcing_empmr_mean           =   0.0000000000000E+00
(PID.TID 0000.0001) %MON forcing_empmr_sd             =   0.0000000000000E+00
(PID.TID 0000.0001) %MON forcing_empmr_del2           =   0.0000000000000E+00
(PID.TID 0000.0001) %MON forcing_fu_max               =   0.0000000000000E+00
(PID.TID 0000.0001) %MON forcing_fu_min               =   0.0000000000000E+00
(PID.TID 0000.0001) %MON forcing_fu_mean              =   0.0000000000000E+00
(PID.TID 0000.0001) %MON forcing_fu_sd                =   0.0000000000000E+00
(PID.TID 0000.0001) %MON forcing_fu_del2              =   0.0000000000000E+00
(PID.TID 0000.0001) %MON forcing_fv_max               =   0.0000000000000E+00
(PID.TID 0000.0001) %MON forcing_fv_min               =   0.0000000000000E+00
(PID.TID 0000.0001) %MON forcing_fv_mean              =   0.0000000000000E+00
(PID.TID 0000.0001) %MON forcing_fv_sd                =   0.0000000000000E+00
(PID.TID 0000.0001) %MON forcing_fv_del2              =   0.0000000000000E+00
(PID.TID 0000.0001) %MON advcfl_uvel_max              =   0.0000000000000E+00
(PID.TID 0000.0001) %MON advcfl_vvel_max              =   0.0000000000000E+00
(PID.TID 0000.0001) %MON advcfl_wvel_max              =   0.0000000000000E+00
(PID.TID 0000.0001) %MON advcfl_W_hf_max              =   0.0000000000000E+00
(PID.TID 0000.0001) %MON pe_b_mean                    =   0.0000000000000E+00
(PID.TID 0000.0001) %MON ke_max                       =   0.0000000000000E+00
(PID.TID 0000.0001) %MON ke_mean                      =   0.0000000000000E+00
(PID.TID 0000.0001) %MON ke_vol                       =   4.1199767883485E+13
(PID.TID 0000.0001) %MON vort_r_min                   =   0.0000000000000E+00
(PID.TID 0000.0001) %MON vort_r_max                   =   0.0000000000000E+00
(PID.TID 0000.0001) %MON vort_a_mean                  =  -4.5067801836625E-05
(PID.TID 0000.0001) %MON vort_a_sd                    =  -4.1359030627651E-25
(PID.TID 0000.0001) %MON vort_p_mean                  =  -4.5067801836625E-05
(PID.TID 0000.0001) %MON vort_p_sd                    =   0.0000000000000E+00
(PID.TID 0000.0001) %MON surfExpan_theta_mean         =   0.0000000000000E+00
(PID.TID 0000.0001) %MON surfExpan_salt_mean          =   0.0000000000000E+00
(PID.TID 0000.0001) // =======================================================
(PID.TID 0000.0001) // End MONITOR dynamic field statistics
(PID.TID 0000.0001) // =======================================================
(PID.TID 0000.0001) // =======================================================
(PID.TID 0000.0001) // Begin MONITOR ptracer field statistics
(PID.TID 0000.0001) // =======================================================
(PID.TID 0000.0001) %MON trcstat_ptracer01_max        =   2.2437000274658E+00
(PID.TID 0000.0001) %MON trcstat_ptracer01_min        =   2.1024999022484E-01
(PID.TID 0000.0001) %MON trcstat_ptracer01_mean       =   1.5821337454309E+00
(PID.TID 0000.0001) %MON trcstat_ptracer01_sd         =   4.6735065681380E-01
(PID.TID 0000.0001) %MON trcstat_ptracer01_del2       =   0.0000000000000E+00
(PID.TID 0000.0001) %MON trcstat_ptracer02_max        =   3.3903499603271E+01
(PID.TID 0000.0001) %MON trcstat_ptracer02_min        =   4.6300001442432E-02
(PID.TID 0000.0001) %MON trcstat_ptracer02_mean       =   2.3502389802218E+01
(PID.TID 0000.0001) %MON trcstat_ptracer02_sd         =   7.8162030599381E+00
(PID.TID 0000.0001) %MON trcstat_ptracer02_del2       =   0.0000000000000E+00
(PID.TID 0000.0001) %MON trcstat_ptracer03_max        =   1.3000000035390E-03
(PID.TID 0000.0001) %MON trcstat_ptracer03_min        =   1.3000000035390E-03
(PID.TID 0000.0001) %MON trcstat_ptracer03_mean       =   1.3000000035390E-03
(PID.TID 0000.0001) %MON trcstat_ptracer03_sd         =   0.0000000000000E+00
(PID.TID 0000.0001) %MON trcstat_ptracer03_del2       =   0.0000000000000E+00
(PID.TID 0000.0001) %MON trcstat_ptracer04_max        =   3.9387401580811E+01
(PID.TID 0000.0001) %MON trcstat_ptracer04_min        =   1.2247999906540E+00
(PID.TID 0000.0001) %MON trcstat_ptracer04_mean       =   2.9621888811155E+01
(PID.TID 0000.0001) %MON trcstat_ptracer04_sd         =   1.1270588565469E+01
(PID.TID 0000.0001) %MON trcstat_ptracer04_del2       =   0.0000000000000E+00
(PID.TID 0000.0001) %MON trcstat_ptracer05_max        =   5.1134419627488E-03
(PID.TID 0000.0001) %MON trcstat_ptracer05_min        =   0.0000000000000E+00
(PID.TID 0000.0001) %MON trcstat_ptracer05_mean       =   2.1473529209187E-04
(PID.TID 0000.0001) %MON trcstat_ptracer05_sd         =   9.2442155098050E-04
(PID.TID 0000.0001) %MON trcstat_ptracer05_del2       =   0.0000000000000E+00
(PID.TID 0000.0001) %MON trcstat_ptracer06_max        =   8.1815071403980E-02
(PID.TID 0000.0001) %MON trcstat_ptracer06_min        =   0.0000000000000E+00
(PID.TID 0000.0001) %MON trcstat_ptracer06_mean       =   3.4357646734700E-03
(PID.TID 0000.0001) %MON trcstat_ptracer06_sd         =   1.4790744815688E-02
(PID.TID 0000.0001) %MON trcstat_ptracer06_del2       =   0.0000000000000E+00
(PID.TID 0000.0001) %MON trcstat_ptracer07_max        =   5.1134416025889E-06
(PID.TID 0000.0001) %MON trcstat_ptracer07_min        =   0.0000000000000E+00
(PID.TID 0000.0001) %MON trcstat_ptracer07_mean       =   2.1473529239838E-07
(PID.TID 0000.0001) %MON trcstat_ptracer07_sd         =   9.2442155063872E-07
(PID.TID 0000.0001) %MON trcstat_ptracer07_del2       =   0.0000000000000E+00
(PID.TID 0000.0001) %MON trcstat_ptracer08_max        =   1.0360708957435E-09
(PID.TID 0000.0001) %MON trcstat_ptracer08_min        =   0.0000000000000E+00
(PID.TID 0000.0001) %MON trcstat_ptracer08_mean       =   1.3701999921416E-10
(PID.TID 0000.0001) %MON trcstat_ptracer08_sd         =   2.5061738948910E-10
(PID.TID 0000.0001) %MON trcstat_ptracer08_del2       =   0.0000000000000E+00
(PID.TID 0000.0001) %MON trcstat_ptracer09_max        =   1.6577134331897E-08
(PID.TID 0000.0001) %MON trcstat_ptracer09_min        =   0.0000000000000E+00
(PID.TID 0000.0001) %MON trcstat_ptracer09_mean       =   2.1923199874266E-09
(PID.TID 0000.0001) %MON trcstat_ptracer09_sd         =   4.0098782318255E-09
(PID.TID 0000.0001) %MON trcstat_ptracer09_del2       =   0.0000000000000E+00
(PID.TID 0000.0001) %MON trcstat_ptracer10_max        =   1.0360708601817E-12
(PID.TID 0000.0001) %MON trcstat_ptracer10_min        =   0.0000000000000E+00
(PID.TID 0000.0001) %MON trcstat_ptracer10_mean       =   1.3701999017052E-13
(PID.TID 0000.0001) %MON trcstat_ptracer10_sd         =   2.5061737519455E-13
(PID.TID 0000.0001) %MON trcstat_ptracer10_del2       =   0.0000000000000E+00
(PID.TID 0000.0001) %MON trcstat_ptracer11_max        =   4.2543990552701E-09
(PID.TID 0000.0001) %MON trcstat_ptracer11_min        =   0.0000000000000E+00
(PID.TID 0000.0001) %MON trcstat_ptracer11_mean       =   5.1571246209822E-10
(PID.TID 0000.0001) %MON trcstat_ptracer11_sd         =   1.0378771735623E-09
(PID.TID 0000.0001) %MON trcstat_ptracer11_del2       =   0.0000000000000E+00
(PID.TID 0000.0001) %MON trcstat_ptracer12_max        =   1.0360708957435E-09
(PID.TID 0000.0001) %MON trcstat_ptracer12_min        =   0.0000000000000E+00
(PID.TID 0000.0001) %MON trcstat_ptracer12_mean       =   1.3701999921416E-10
(PID.TID 0000.0001) %MON trcstat_ptracer12_sd         =   2.5061738948910E-10
(PID.TID 0000.0001) %MON trcstat_ptracer12_del2       =   0.0000000000000E+00
(PID.TID 0000.0001) %MON trcstat_ptracer13_max        =   1.6577134331897E-08
(PID.TID 0000.0001) %MON trcstat_ptracer13_min        =   0.0000000000000E+00
(PID.TID 0000.0001) %MON trcstat_ptracer13_mean       =   2.1923199874266E-09
(PID.TID 0000.0001) %MON trcstat_ptracer13_sd         =   4.0098782318255E-09
(PID.TID 0000.0001) %MON trcstat_ptracer13_del2       =   0.0000000000000E+00
(PID.TID 0000.0001) %MON trcstat_ptracer14_max        =   1.0360708601817E-12
(PID.TID 0000.0001) %MON trcstat_ptracer14_min        =   0.0000000000000E+00
(PID.TID 0000.0001) %MON trcstat_ptracer14_mean       =   1.3701999017052E-13
(PID.TID 0000.0001) %MON trcstat_ptracer14_sd         =   2.5061737519455E-13
(PID.TID 0000.0001) %MON trcstat_ptracer14_del2       =   0.0000000000000E+00
(PID.TID 0000.0001) %MON trcstat_ptracer15_max        =   4.2543990552701E-09
(PID.TID 0000.0001) %MON trcstat_ptracer15_min        =   0.0000000000000E+00
(PID.TID 0000.0001) %MON trcstat_ptracer15_mean       =   5.1571246209822E-10
(PID.TID 0000.0001) %MON trcstat_ptracer15_sd         =   1.0378771735623E-09
(PID.TID 0000.0001) %MON trcstat_ptracer15_del2       =   0.0000000000000E+00
(PID.TID 0000.0001) %MON trcstat_ptracer16_max        =   2.7246939134784E-04
(PID.TID 0000.0001) %MON trcstat_ptracer16_min        =   1.1728604931704E-06
(PID.TID 0000.0001) %MON trcstat_ptracer16_mean       =   7.8931833963575E-05
(PID.TID 0000.0001) %MON trcstat_ptracer16_sd         =   9.6634603938663E-05
(PID.TID 0000.0001) %MON trcstat_ptracer16_del2       =   0.0000000000000E+00
(PID.TID 0000.0001) %MON trcstat_ptracer17_max        =   4.3595102615654E-03
(PID.TID 0000.0001) %MON trcstat_ptracer17_min        =   1.8765767890727E-05
(PID.TID 0000.0001) %MON trcstat_ptracer17_mean       =   1.2629093434172E-03
(PID.TID 0000.0001) %MON trcstat_ptracer17_sd         =   1.5461536630186E-03
(PID.TID 0000.0001) %MON trcstat_ptracer17_del2       =   0.0000000000000E+00
(PID.TID 0000.0001) %MON trcstat_ptracer18_max        =   2.7246940703662E-07
(PID.TID 0000.0001) %MON trcstat_ptracer18_min        =   1.1728603643846E-09
(PID.TID 0000.0001) %MON trcstat_ptracer18_mean       =   7.8931834490195E-08
(PID.TID 0000.0001) %MON trcstat_ptracer18_sd         =   9.6634605997273E-08
(PID.TID 0000.0001) %MON trcstat_ptracer18_del2       =   0.0000000000000E+00
(PID.TID 0000.0001) %MON trcstat_ptracer19_max        =   1.6253039240837E-02
(PID.TID 0000.0001) %MON trcstat_ptracer19_min        =   1.1382005177438E-03
(PID.TID 0000.0001) %MON trcstat_ptracer19_mean       =   5.4894673427532E-03
(PID.TID 0000.0001) %MON trcstat_ptracer19_sd         =   5.1731692661236E-03
(PID.TID 0000.0001) %MON trcstat_ptracer19_del2       =   0.0000000000000E+00
(PID.TID 0000.0001) %MON trcstat_ptracer20_max        =   2.5584036484361E-02
(PID.TID 0000.0001) %MON trcstat_ptracer20_min        =   1.8763074649542E-07
(PID.TID 0000.0001) %MON trcstat_ptracer20_mean       =   6.0352662496819E-04
(PID.TID 0000.0001) %MON trcstat_ptracer20_sd         =   3.2425361014468E-03
(PID.TID 0000.0001) %MON trcstat_ptracer20_del2       =   0.0000000000000E+00
(PID.TID 0000.0001) %MON trcstat_ptracer21_max        =   1.8258459866047E-02
(PID.TID 0000.0001) %MON trcstat_ptracer21_min        =   3.8796779335826E-06
(PID.TID 0000.0001) %MON trcstat_ptracer21_mean       =   6.0474443227462E-04
(PID.TID 0000.0001) %MON trcstat_ptracer21_sd         =   1.9428680890593E-03
(PID.TID 0000.0001) %MON trcstat_ptracer21_del2       =   0.0000000000000E+00
(PID.TID 0000.0001) %MON trcstat_ptracer22_max        =   7.3461555984977E-06
(PID.TID 0000.0001) %MON trcstat_ptracer22_min        =   0.0000000000000E+00
(PID.TID 0000.0001) %MON trcstat_ptracer22_mean       =   2.1904083196854E-07
(PID.TID 0000.0001) %MON trcstat_ptracer22_sd         =   1.1483912396179E-06
(PID.TID 0000.0001) %MON trcstat_ptracer22_del2       =   0.0000000000000E+00
(PID.TID 0000.0001) %MON trcstat_ptracer23_max        =   7.3461555984977E-06
(PID.TID 0000.0001) %MON trcstat_ptracer23_min        =   0.0000000000000E+00
(PID.TID 0000.0001) %MON trcstat_ptracer23_mean       =   2.1904083196854E-07
(PID.TID 0000.0001) %MON trcstat_ptracer23_sd         =   1.1483912396179E-06
(PID.TID 0000.0001) %MON trcstat_ptracer23_del2       =   0.0000000000000E+00
(PID.TID 0000.0001) %MON trcstat_ptracer24_max        =   7.3461555984977E-06
(PID.TID 0000.0001) %MON trcstat_ptracer24_min        =   0.0000000000000E+00
(PID.TID 0000.0001) %MON trcstat_ptracer24_mean       =   2.1904083196854E-07
(PID.TID 0000.0001) %MON trcstat_ptracer24_sd         =   1.1483912396179E-06
(PID.TID 0000.0001) %MON trcstat_ptracer24_del2       =   0.0000000000000E+00
(PID.TID 0000.0001) %MON trcstat_ptracer25_max        =   7.3461555984977E-06
(PID.TID 0000.0001) %MON trcstat_ptracer25_min        =   0.0000000000000E+00
(PID.TID 0000.0001) %MON trcstat_ptracer25_mean       =   2.1904083196854E-07
(PID.TID 0000.0001) %MON trcstat_ptracer25_sd         =   1.1483912396179E-06
(PID.TID 0000.0001) %MON trcstat_ptracer25_del2       =   0.0000000000000E+00
(PID.TID 0000.0001) %MON trcstat_ptracer26_max        =   7.3461555984977E-06
(PID.TID 0000.0001) %MON trcstat_ptracer26_min        =   0.0000000000000E+00
(PID.TID 0000.0001) %MON trcstat_ptracer26_mean       =   2.1904083196854E-07
(PID.TID 0000.0001) %MON trcstat_ptracer26_sd         =   1.1483912396179E-06
(PID.TID 0000.0001) %MON trcstat_ptracer26_del2       =   0.0000000000000E+00
(PID.TID 0000.0001) %MON trcstat_ptracer27_max        =   7.3461555984977E-06
(PID.TID 0000.0001) %MON trcstat_ptracer27_min        =   0.0000000000000E+00
(PID.TID 0000.0001) %MON trcstat_ptracer27_mean       =   2.1904083196854E-07
(PID.TID 0000.0001) %MON trcstat_ptracer27_sd         =   1.1483912396179E-06
(PID.TID 0000.0001) %MON trcstat_ptracer27_del2       =   0.0000000000000E+00
(PID.TID 0000.0001) %MON trcstat_ptracer28_max        =   7.3461555984977E-06
(PID.TID 0000.0001) %MON trcstat_ptracer28_min        =   0.0000000000000E+00
(PID.TID 0000.0001) %MON trcstat_ptracer28_mean       =   2.1904083196854E-07
(PID.TID 0000.0001) %MON trcstat_ptracer28_sd         =   1.1483912396179E-06
(PID.TID 0000.0001) %MON trcstat_ptracer28_del2       =   0.0000000000000E+00
(PID.TID 0000.0001) %MON trcstat_ptracer29_max        =   7.3461555984977E-06
(PID.TID 0000.0001) %MON trcstat_ptracer29_min        =   0.0000000000000E+00
(PID.TID 0000.0001) %MON trcstat_ptracer29_mean       =   2.1904083196854E-07
(PID.TID 0000.0001) %MON trcstat_ptracer29_sd         =   1.1483912396179E-06
(PID.TID 0000.0001) %MON trcstat_ptracer29_del2       =   0.0000000000000E+00
(PID.TID 0000.0001) %MON trcstat_ptracer30_max        =   7.3461555984977E-06
(PID.TID 0000.0001) %MON trcstat_ptracer30_min        =   0.0000000000000E+00
(PID.TID 0000.0001) %MON trcstat_ptracer30_mean       =   2.1904083196854E-07
(PID.TID 0000.0001) %MON trcstat_ptracer30_sd         =   1.1483912396179E-06
(PID.TID 0000.0001) %MON trcstat_ptracer30_del2       =   0.0000000000000E+00
(PID.TID 0000.0001) %MON trcstat_ptracer31_max        =   7.3461555984977E-06
(PID.TID 0000.0001) %MON trcstat_ptracer31_min        =   0.0000000000000E+00
(PID.TID 0000.0001) %MON trcstat_ptracer31_mean       =   2.1904083196854E-07
(PID.TID 0000.0001) %MON trcstat_ptracer31_sd         =   1.1483912396179E-06
(PID.TID 0000.0001) %MON trcstat_ptracer31_del2       =   0.0000000000000E+00
(PID.TID 0000.0001) %MON trcstat_ptracer32_max        =   7.3461555984977E-06
(PID.TID 0000.0001) %MON trcstat_ptracer32_min        =   0.0000000000000E+00
(PID.TID 0000.0001) %MON trcstat_ptracer32_mean       =   2.1904083196854E-07
(PID.TID 0000.0001) %MON trcstat_ptracer32_sd         =   1.1483912396179E-06
(PID.TID 0000.0001) %MON trcstat_ptracer32_del2       =   0.0000000000000E+00
(PID.TID 0000.0001) %MON trcstat_ptracer33_max        =   7.3461555984977E-06
(PID.TID 0000.0001) %MON trcstat_ptracer33_min        =   0.0000000000000E+00
(PID.TID 0000.0001) %MON trcstat_ptracer33_mean       =   2.1904083196854E-07
(PID.TID 0000.0001) %MON trcstat_ptracer33_sd         =   1.1483912396179E-06
(PID.TID 0000.0001) %MON trcstat_ptracer33_del2       =   0.0000000000000E+00
(PID.TID 0000.0001) %MON trcstat_ptracer34_max        =   7.3461555984977E-06
(PID.TID 0000.0001) %MON trcstat_ptracer34_min        =   0.0000000000000E+00
(PID.TID 0000.0001) %MON trcstat_ptracer34_mean       =   2.1904083196854E-07
(PID.TID 0000.0001) %MON trcstat_ptracer34_sd         =   1.1483912396179E-06
(PID.TID 0000.0001) %MON trcstat_ptracer34_del2       =   0.0000000000000E+00
(PID.TID 0000.0001) %MON trcstat_ptracer35_max        =   7.3461555984977E-06
(PID.TID 0000.0001) %MON trcstat_ptracer35_min        =   0.0000000000000E+00
(PID.TID 0000.0001) %MON trcstat_ptracer35_mean       =   2.1904083196854E-07
(PID.TID 0000.0001) %MON trcstat_ptracer35_sd         =   1.1483912396179E-06
(PID.TID 0000.0001) %MON trcstat_ptracer35_del2       =   0.0000000000000E+00
(PID.TID 0000.0001) %MON trcstat_ptracer36_max        =   7.3461555984977E-06
(PID.TID 0000.0001) %MON trcstat_ptracer36_min        =   0.0000000000000E+00
(PID.TID 0000.0001) %MON trcstat_ptracer36_mean       =   2.1904083196854E-07
(PID.TID 0000.0001) %MON trcstat_ptracer36_sd         =   1.1483912396179E-06
(PID.TID 0000.0001) %MON trcstat_ptracer36_del2       =   0.0000000000000E+00
(PID.TID 0000.0001) %MON trcstat_ptracer37_max        =   7.3461555984977E-06
(PID.TID 0000.0001) %MON trcstat_ptracer37_min        =   0.0000000000000E+00
(PID.TID 0000.0001) %MON trcstat_ptracer37_mean       =   2.1904083196854E-07
(PID.TID 0000.0001) %MON trcstat_ptracer37_sd         =   1.1483912396179E-06
(PID.TID 0000.0001) %MON trcstat_ptracer37_del2       =   0.0000000000000E+00
(PID.TID 0000.0001) %MON trcstat_ptracer38_max        =   7.3461555984977E-06
(PID.TID 0000.0001) %MON trcstat_ptracer38_min        =   0.0000000000000E+00
(PID.TID 0000.0001) %MON trcstat_ptracer38_mean       =   2.1904083196854E-07
(PID.TID 0000.0001) %MON trcstat_ptracer38_sd         =   1.1483912396179E-06
(PID.TID 0000.0001) %MON trcstat_ptracer38_del2       =   0.0000000000000E+00
(PID.TID 0000.0001) %MON trcstat_ptracer39_max        =   7.3461555984977E-06
(PID.TID 0000.0001) %MON trcstat_ptracer39_min        =   0.0000000000000E+00
(PID.TID 0000.0001) %MON trcstat_ptracer39_mean       =   2.1904083196854E-07
(PID.TID 0000.0001) %MON trcstat_ptracer39_sd         =   1.1483912396179E-06
(PID.TID 0000.0001) %MON trcstat_ptracer39_del2       =   0.0000000000000E+00
(PID.TID 0000.0001) %MON trcstat_ptracer40_max        =   7.3461555984977E-06
(PID.TID 0000.0001) %MON trcstat_ptracer40_min        =   0.0000000000000E+00
(PID.TID 0000.0001) %MON trcstat_ptracer40_mean       =   2.1904083196854E-07
(PID.TID 0000.0001) %MON trcstat_ptracer40_sd         =   1.1483912396179E-06
(PID.TID 0000.0001) %MON trcstat_ptracer40_del2       =   0.0000000000000E+00
(PID.TID 0000.0001) %MON trcstat_ptracer41_max        =   7.3461555984977E-06
(PID.TID 0000.0001) %MON trcstat_ptracer41_min        =   0.0000000000000E+00
(PID.TID 0000.0001) %MON trcstat_ptracer41_mean       =   2.1904083196854E-07
(PID.TID 0000.0001) %MON trcstat_ptracer41_sd         =   1.1483912396179E-06
(PID.TID 0000.0001) %MON trcstat_ptracer41_del2       =   0.0000000000000E+00
(PID.TID 0000.0001) %MON trcstat_ptracer42_max        =   7.3461555984977E-06
(PID.TID 0000.0001) %MON trcstat_ptracer42_min        =   0.0000000000000E+00
(PID.TID 0000.0001) %MON trcstat_ptracer42_mean       =   2.1904083196854E-07
(PID.TID 0000.0001) %MON trcstat_ptracer42_sd         =   1.1483912396179E-06
(PID.TID 0000.0001) %MON trcstat_ptracer42_del2       =   0.0000000000000E+00
(PID.TID 0000.0001) %MON trcstat_ptracer43_max        =   7.3461555984977E-06
(PID.TID 0000.0001) %MON trcstat_ptracer43_min        =   0.0000000000000E+00
(PID.TID 0000.0001) %MON trcstat_ptracer43_mean       =   2.1904083196854E-07
(PID.TID 0000.0001) %MON trcstat_ptracer43_sd         =   1.1483912396179E-06
(PID.TID 0000.0001) %MON trcstat_ptracer43_del2       =   0.0000000000000E+00
(PID.TID 0000.0001) %MON trcstat_ptracer44_max        =   7.3461555984977E-06
(PID.TID 0000.0001) %MON trcstat_ptracer44_min        =   0.0000000000000E+00
(PID.TID 0000.0001) %MON trcstat_ptracer44_mean       =   2.1904083196854E-07
(PID.TID 0000.0001) %MON trcstat_ptracer44_sd         =   1.1483912396179E-06
(PID.TID 0000.0001) %MON trcstat_ptracer44_del2       =   0.0000000000000E+00
(PID.TID 0000.0001) %MON trcstat_ptracer45_max        =   7.3461555984977E-06
(PID.TID 0000.0001) %MON trcstat_ptracer45_min        =   0.0000000000000E+00
(PID.TID 0000.0001) %MON trcstat_ptracer45_mean       =   2.1904083196854E-07
(PID.TID 0000.0001) %MON trcstat_ptracer45_sd         =   1.1483912396179E-06
(PID.TID 0000.0001) %MON trcstat_ptracer45_del2       =   0.0000000000000E+00
(PID.TID 0000.0001) %MON trcstat_ptracer46_max        =   7.3461555984977E-06
(PID.TID 0000.0001) %MON trcstat_ptracer46_min        =   0.0000000000000E+00
(PID.TID 0000.0001) %MON trcstat_ptracer46_mean       =   2.1904083196854E-07
(PID.TID 0000.0001) %MON trcstat_ptracer46_sd         =   1.1483912396179E-06
(PID.TID 0000.0001) %MON trcstat_ptracer46_del2       =   0.0000000000000E+00
(PID.TID 0000.0001) %MON trcstat_ptracer47_max        =   7.3461555984977E-06
(PID.TID 0000.0001) %MON trcstat_ptracer47_min        =   0.0000000000000E+00
(PID.TID 0000.0001) %MON trcstat_ptracer47_mean       =   2.1904083196854E-07
(PID.TID 0000.0001) %MON trcstat_ptracer47_sd         =   1.1483912396179E-06
(PID.TID 0000.0001) %MON trcstat_ptracer47_del2       =   0.0000000000000E+00
(PID.TID 0000.0001) %MON trcstat_ptracer48_max        =   7.3461555984977E-06
(PID.TID 0000.0001) %MON trcstat_ptracer48_min        =   0.0000000000000E+00
(PID.TID 0000.0001) %MON trcstat_ptracer48_mean       =   2.1904083196854E-07
(PID.TID 0000.0001) %MON trcstat_ptracer48_sd         =   1.1483912396179E-06
(PID.TID 0000.0001) %MON trcstat_ptracer48_del2       =   0.0000000000000E+00
(PID.TID 0000.0001) %MON trcstat_ptracer49_max        =   7.3461555984977E-06
(PID.TID 0000.0001) %MON trcstat_ptracer49_min        =   0.0000000000000E+00
(PID.TID 0000.0001) %MON trcstat_ptracer49_mean       =   2.1904083196854E-07
(PID.TID 0000.0001) %MON trcstat_ptracer49_sd         =   1.1483912396179E-06
(PID.TID 0000.0001) %MON trcstat_ptracer49_del2       =   0.0000000000000E+00
(PID.TID 0000.0001) %MON trcstat_ptracer50_max        =   7.3461555984977E-06
(PID.TID 0000.0001) %MON trcstat_ptracer50_min        =   0.0000000000000E+00
(PID.TID 0000.0001) %MON trcstat_ptracer50_mean       =   2.1904083196854E-07
(PID.TID 0000.0001) %MON trcstat_ptracer50_sd         =   1.1483912396179E-06
(PID.TID 0000.0001) %MON trcstat_ptracer50_del2       =   0.0000000000000E+00
(PID.TID 0000.0001) %MON trcstat_ptracer51_max        =   7.3461555984977E-06
(PID.TID 0000.0001) %MON trcstat_ptracer51_min        =   0.0000000000000E+00
(PID.TID 0000.0001) %MON trcstat_ptracer51_mean       =   2.1904083196854E-07
(PID.TID 0000.0001) %MON trcstat_ptracer51_sd         =   1.1483912396179E-06
(PID.TID 0000.0001) %MON trcstat_ptracer51_del2       =   0.0000000000000E+00
(PID.TID 0000.0001) %MON trcstat_ptracer52_max        =   7.3461555984977E-06
(PID.TID 0000.0001) %MON trcstat_ptracer52_min        =   0.0000000000000E+00
(PID.TID 0000.0001) %MON trcstat_ptracer52_mean       =   2.1904083196854E-07
(PID.TID 0000.0001) %MON trcstat_ptracer52_sd         =   1.1483912396179E-06
(PID.TID 0000.0001) %MON trcstat_ptracer52_del2       =   0.0000000000000E+00
(PID.TID 0000.0001) %MON trcstat_ptracer53_max        =   7.3461555984977E-06
(PID.TID 0000.0001) %MON trcstat_ptracer53_min        =   0.0000000000000E+00
(PID.TID 0000.0001) %MON trcstat_ptracer53_mean       =   2.1904083196854E-07
(PID.TID 0000.0001) %MON trcstat_ptracer53_sd         =   1.1483912396179E-06
(PID.TID 0000.0001) %MON trcstat_ptracer53_del2       =   0.0000000000000E+00
(PID.TID 0000.0001) %MON trcstat_ptracer54_max        =   7.3461555984977E-06
(PID.TID 0000.0001) %MON trcstat_ptracer54_min        =   0.0000000000000E+00
(PID.TID 0000.0001) %MON trcstat_ptracer54_mean       =   2.1904083196854E-07
(PID.TID 0000.0001) %MON trcstat_ptracer54_sd         =   1.1483912396179E-06
(PID.TID 0000.0001) %MON trcstat_ptracer54_del2       =   0.0000000000000E+00
(PID.TID 0000.0001) %MON trcstat_ptracer55_max        =   7.3461555984977E-06
(PID.TID 0000.0001) %MON trcstat_ptracer55_min        =   0.0000000000000E+00
(PID.TID 0000.0001) %MON trcstat_ptracer55_mean       =   2.1904083196854E-07
(PID.TID 0000.0001) %MON trcstat_ptracer55_sd         =   1.1483912396179E-06
(PID.TID 0000.0001) %MON trcstat_ptracer55_del2       =   0.0000000000000E+00
(PID.TID 0000.0001) %MON trcstat_ptracer56_max        =   7.3461555984977E-06
(PID.TID 0000.0001) %MON trcstat_ptracer56_min        =   0.0000000000000E+00
(PID.TID 0000.0001) %MON trcstat_ptracer56_mean       =   2.1904083196854E-07
(PID.TID 0000.0001) %MON trcstat_ptracer56_sd         =   1.1483912396179E-06
(PID.TID 0000.0001) %MON trcstat_ptracer56_del2       =   0.0000000000000E+00
(PID.TID 0000.0001) %MON trcstat_ptracer57_max        =   7.3461555984977E-06
(PID.TID 0000.0001) %MON trcstat_ptracer57_min        =   0.0000000000000E+00
(PID.TID 0000.0001) %MON trcstat_ptracer57_mean       =   2.1904083196854E-07
(PID.TID 0000.0001) %MON trcstat_ptracer57_sd         =   1.1483912396179E-06
(PID.TID 0000.0001) %MON trcstat_ptracer57_del2       =   0.0000000000000E+00
(PID.TID 0000.0001) %MON trcstat_ptracer58_max        =   7.3461555984977E-06
(PID.TID 0000.0001) %MON trcstat_ptracer58_min        =   0.0000000000000E+00
(PID.TID 0000.0001) %MON trcstat_ptracer58_mean       =   2.1904083196854E-07
(PID.TID 0000.0001) %MON trcstat_ptracer58_sd         =   1.1483912396179E-06
(PID.TID 0000.0001) %MON trcstat_ptracer58_del2       =   0.0000000000000E+00
(PID.TID 0000.0001) %MON trcstat_ptracer59_max        =   7.3461555984977E-06
(PID.TID 0000.0001) %MON trcstat_ptracer59_min        =   0.0000000000000E+00
(PID.TID 0000.0001) %MON trcstat_ptracer59_mean       =   2.1904083196854E-07
(PID.TID 0000.0001) %MON trcstat_ptracer59_sd         =   1.1483912396179E-06
(PID.TID 0000.0001) %MON trcstat_ptracer59_del2       =   0.0000000000000E+00
(PID.TID 0000.0001) %MON trcstat_ptracer60_max        =   7.3461555984977E-06
(PID.TID 0000.0001) %MON trcstat_ptracer60_min        =   0.0000000000000E+00
(PID.TID 0000.0001) %MON trcstat_ptracer60_mean       =   2.1904083196854E-07
(PID.TID 0000.0001) %MON trcstat_ptracer60_sd         =   1.1483912396179E-06
(PID.TID 0000.0001) %MON trcstat_ptracer60_del2       =   0.0000000000000E+00
(PID.TID 0000.0001) %MON trcstat_ptracer61_max        =   7.3461555984977E-06
(PID.TID 0000.0001) %MON trcstat_ptracer61_min        =   0.0000000000000E+00
(PID.TID 0000.0001) %MON trcstat_ptracer61_mean       =   2.1904083196854E-07
(PID.TID 0000.0001) %MON trcstat_ptracer61_sd         =   1.1483912396179E-06
(PID.TID 0000.0001) %MON trcstat_ptracer61_del2       =   0.0000000000000E+00
(PID.TID 0000.0001) %MON trcstat_ptracer62_max        =   7.3461555984977E-06
(PID.TID 0000.0001) %MON trcstat_ptracer62_min        =   0.0000000000000E+00
(PID.TID 0000.0001) %MON trcstat_ptracer62_mean       =   2.1904083196854E-07
(PID.TID 0000.0001) %MON trcstat_ptracer62_sd         =   1.1483912396179E-06
(PID.TID 0000.0001) %MON trcstat_ptracer62_del2       =   0.0000000000000E+00
(PID.TID 0000.0001) %MON trcstat_ptracer63_max        =   7.3461555984977E-06
(PID.TID 0000.0001) %MON trcstat_ptracer63_min        =   0.0000000000000E+00
(PID.TID 0000.0001) %MON trcstat_ptracer63_mean       =   2.1904083196854E-07
(PID.TID 0000.0001) %MON trcstat_ptracer63_sd         =   1.1483912396179E-06
(PID.TID 0000.0001) %MON trcstat_ptracer63_del2       =   0.0000000000000E+00
(PID.TID 0000.0001) %MON trcstat_ptracer64_max        =   7.3461555984977E-06
(PID.TID 0000.0001) %MON trcstat_ptracer64_min        =   0.0000000000000E+00
(PID.TID 0000.0001) %MON trcstat_ptracer64_mean       =   2.1904083196854E-07
(PID.TID 0000.0001) %MON trcstat_ptracer64_sd         =   1.1483912396179E-06
(PID.TID 0000.0001) %MON trcstat_ptracer64_del2       =   0.0000000000000E+00
(PID.TID 0000.0001) %MON trcstat_ptracer65_max        =   7.3461555984977E-06
(PID.TID 0000.0001) %MON trcstat_ptracer65_min        =   0.0000000000000E+00
(PID.TID 0000.0001) %MON trcstat_ptracer65_mean       =   2.1904083196854E-07
(PID.TID 0000.0001) %MON trcstat_ptracer65_sd         =   1.1483912396179E-06
(PID.TID 0000.0001) %MON trcstat_ptracer65_del2       =   0.0000000000000E+00
(PID.TID 0000.0001) %MON trcstat_ptracer66_max        =   7.3461555984977E-06
(PID.TID 0000.0001) %MON trcstat_ptracer66_min        =   0.0000000000000E+00
(PID.TID 0000.0001) %MON trcstat_ptracer66_mean       =   2.1904083196854E-07
(PID.TID 0000.0001) %MON trcstat_ptracer66_sd         =   1.1483912396179E-06
(PID.TID 0000.0001) %MON trcstat_ptracer66_del2       =   0.0000000000000E+00
(PID.TID 0000.0001) %MON trcstat_ptracer67_max        =   7.3461555984977E-06
(PID.TID 0000.0001) %MON trcstat_ptracer67_min        =   0.0000000000000E+00
(PID.TID 0000.0001) %MON trcstat_ptracer67_mean       =   2.1904083196854E-07
(PID.TID 0000.0001) %MON trcstat_ptracer67_sd         =   1.1483912396179E-06
(PID.TID 0000.0001) %MON trcstat_ptracer67_del2       =   0.0000000000000E+00
(PID.TID 0000.0001) %MON trcstat_ptracer68_max        =   7.3461555984977E-06
(PID.TID 0000.0001) %MON trcstat_ptracer68_min        =   0.0000000000000E+00
(PID.TID 0000.0001) %MON trcstat_ptracer68_mean       =   2.1904083196854E-07
(PID.TID 0000.0001) %MON trcstat_ptracer68_sd         =   1.1483912396179E-06
(PID.TID 0000.0001) %MON trcstat_ptracer68_del2       =   0.0000000000000E+00
(PID.TID 0000.0001) %MON trcstat_ptracer69_max        =   7.3461555984977E-06
(PID.TID 0000.0001) %MON trcstat_ptracer69_min        =   0.0000000000000E+00
(PID.TID 0000.0001) %MON trcstat_ptracer69_mean       =   2.1904083196854E-07
(PID.TID 0000.0001) %MON trcstat_ptracer69_sd         =   1.1483912396179E-06
(PID.TID 0000.0001) %MON trcstat_ptracer69_del2       =   0.0000000000000E+00
(PID.TID 0000.0001) %MON trcstat_ptracer70_max        =   7.3461555984977E-06
(PID.TID 0000.0001) %MON trcstat_ptracer70_min        =   0.0000000000000E+00
(PID.TID 0000.0001) %MON trcstat_ptracer70_mean       =   2.1904083196854E-07
(PID.TID 0000.0001) %MON trcstat_ptracer70_sd         =   1.1483912396179E-06
(PID.TID 0000.0001) %MON trcstat_ptracer70_del2       =   0.0000000000000E+00
(PID.TID 0000.0001) %MON trcstat_ptracer71_max        =   7.3461555984977E-06
(PID.TID 0000.0001) %MON trcstat_ptracer71_min        =   0.0000000000000E+00
(PID.TID 0000.0001) %MON trcstat_ptracer71_mean       =   2.1904083196854E-07
(PID.TID 0000.0001) %MON trcstat_ptracer71_sd         =   1.1483912396179E-06
(PID.TID 0000.0001) %MON trcstat_ptracer71_del2       =   0.0000000000000E+00
(PID.TID 0000.0001) %MON trcstat_ptracer72_max        =   7.3461555984977E-06
(PID.TID 0000.0001) %MON trcstat_ptracer72_min        =   0.0000000000000E+00
(PID.TID 0000.0001) %MON trcstat_ptracer72_mean       =   2.1904083196854E-07
(PID.TID 0000.0001) %MON trcstat_ptracer72_sd         =   1.1483912396179E-06
(PID.TID 0000.0001) %MON trcstat_ptracer72_del2       =   0.0000000000000E+00
(PID.TID 0000.0001) %MON trcstat_ptracer73_max        =   7.3461555984977E-06
(PID.TID 0000.0001) %MON trcstat_ptracer73_min        =   0.0000000000000E+00
(PID.TID 0000.0001) %MON trcstat_ptracer73_mean       =   2.1904083196854E-07
(PID.TID 0000.0001) %MON trcstat_ptracer73_sd         =   1.1483912396179E-06
(PID.TID 0000.0001) %MON trcstat_ptracer73_del2       =   0.0000000000000E+00
(PID.TID 0000.0001) %MON trcstat_ptracer74_max        =   7.3461555984977E-06
(PID.TID 0000.0001) %MON trcstat_ptracer74_min        =   0.0000000000000E+00
(PID.TID 0000.0001) %MON trcstat_ptracer74_mean       =   2.1904083196854E-07
(PID.TID 0000.0001) %MON trcstat_ptracer74_sd         =   1.1483912396179E-06
(PID.TID 0000.0001) %MON trcstat_ptracer74_del2       =   0.0000000000000E+00
(PID.TID 0000.0001) %MON trcstat_ptracer75_max        =   7.3461555984977E-06
(PID.TID 0000.0001) %MON trcstat_ptracer75_min        =   0.0000000000000E+00
(PID.TID 0000.0001) %MON trcstat_ptracer75_mean       =   2.1904083196854E-07
(PID.TID 0000.0001) %MON trcstat_ptracer75_sd         =   1.1483912396179E-06
(PID.TID 0000.0001) %MON trcstat_ptracer75_del2       =   0.0000000000000E+00
(PID.TID 0000.0001) %MON trcstat_ptracer76_max        =   7.3461555984977E-06
(PID.TID 0000.0001) %MON trcstat_ptracer76_min        =   0.0000000000000E+00
(PID.TID 0000.0001) %MON trcstat_ptracer76_mean       =   2.1904083196854E-07
(PID.TID 0000.0001) %MON trcstat_ptracer76_sd         =   1.1483912396179E-06
(PID.TID 0000.0001) %MON trcstat_ptracer76_del2       =   0.0000000000000E+00
(PID.TID 0000.0001) %MON trcstat_ptracer77_max        =   7.3461555984977E-06
(PID.TID 0000.0001) %MON trcstat_ptracer77_min        =   0.0000000000000E+00
(PID.TID 0000.0001) %MON trcstat_ptracer77_mean       =   2.1904083196854E-07
(PID.TID 0000.0001) %MON trcstat_ptracer77_sd         =   1.1483912396179E-06
(PID.TID 0000.0001) %MON trcstat_ptracer77_del2       =   0.0000000000000E+00
(PID.TID 0000.0001) %MON trcstat_ptracer78_max        =   7.3461555984977E-06
(PID.TID 0000.0001) %MON trcstat_ptracer78_min        =   0.0000000000000E+00
(PID.TID 0000.0001) %MON trcstat_ptracer78_mean       =   2.1904083196854E-07
(PID.TID 0000.0001) %MON trcstat_ptracer78_sd         =   1.1483912396179E-06
(PID.TID 0000.0001) %MON trcstat_ptracer78_del2       =   0.0000000000000E+00
(PID.TID 0000.0001) %MON trcstat_ptracer79_max        =   7.3461555984977E-06
(PID.TID 0000.0001) %MON trcstat_ptracer79_min        =   0.0000000000000E+00
(PID.TID 0000.0001) %MON trcstat_ptracer79_mean       =   2.1904083196854E-07
(PID.TID 0000.0001) %MON trcstat_ptracer79_sd         =   1.1483912396179E-06
(PID.TID 0000.0001) %MON trcstat_ptracer79_del2       =   0.0000000000000E+00
(PID.TID 0000.0001) %MON trcstat_ptracer80_max        =   7.3461555984977E-06
(PID.TID 0000.0001) %MON trcstat_ptracer80_min        =   0.0000000000000E+00
(PID.TID 0000.0001) %MON trcstat_ptracer80_mean       =   2.1904083196854E-07
(PID.TID 0000.0001) %MON trcstat_ptracer80_sd         =   1.1483912396179E-06
(PID.TID 0000.0001) %MON trcstat_ptracer80_del2       =   0.0000000000000E+00
(PID.TID 0000.0001) %MON trcstat_ptracer81_max        =   7.3461555984977E-06
(PID.TID 0000.0001) %MON trcstat_ptracer81_min        =   0.0000000000000E+00
(PID.TID 0000.0001) %MON trcstat_ptracer81_mean       =   2.1904083196854E-07
(PID.TID 0000.0001) %MON trcstat_ptracer81_sd         =   1.1483912396179E-06
(PID.TID 0000.0001) %MON trcstat_ptracer81_del2       =   0.0000000000000E+00
(PID.TID 0000.0001) %MON trcstat_ptracer82_max        =   7.3461555984977E-06
(PID.TID 0000.0001) %MON trcstat_ptracer82_min        =   0.0000000000000E+00
(PID.TID 0000.0001) %MON trcstat_ptracer82_mean       =   2.1904083196854E-07
(PID.TID 0000.0001) %MON trcstat_ptracer82_sd         =   1.1483912396179E-06
(PID.TID 0000.0001) %MON trcstat_ptracer82_del2       =   0.0000000000000E+00
(PID.TID 0000.0001) %MON trcstat_ptracer83_max        =   7.3461555984977E-06
(PID.TID 0000.0001) %MON trcstat_ptracer83_min        =   0.0000000000000E+00
(PID.TID 0000.0001) %MON trcstat_ptracer83_mean       =   2.1904083196854E-07
(PID.TID 0000.0001) %MON trcstat_ptracer83_sd         =   1.1483912396179E-06
(PID.TID 0000.0001) %MON trcstat_ptracer83_del2       =   0.0000000000000E+00
(PID.TID 0000.0001) %MON trcstat_ptracer84_max        =   7.3461555984977E-06
(PID.TID 0000.0001) %MON trcstat_ptracer84_min        =   0.0000000000000E+00
(PID.TID 0000.0001) %MON trcstat_ptracer84_mean       =   2.1904083196854E-07
(PID.TID 0000.0001) %MON trcstat_ptracer84_sd         =   1.1483912396179E-06
(PID.TID 0000.0001) %MON trcstat_ptracer84_del2       =   0.0000000000000E+00
(PID.TID 0000.0001) %MON trcstat_ptracer85_max        =   7.3461555984977E-06
(PID.TID 0000.0001) %MON trcstat_ptracer85_min        =   0.0000000000000E+00
(PID.TID 0000.0001) %MON trcstat_ptracer85_mean       =   2.1904083196854E-07
(PID.TID 0000.0001) %MON trcstat_ptracer85_sd         =   1.1483912396179E-06
(PID.TID 0000.0001) %MON trcstat_ptracer85_del2       =   0.0000000000000E+00
(PID.TID 0000.0001) %MON trcstat_ptracer86_max        =   7.3461555984977E-06
(PID.TID 0000.0001) %MON trcstat_ptracer86_min        =   0.0000000000000E+00
(PID.TID 0000.0001) %MON trcstat_ptracer86_mean       =   2.1904083196854E-07
(PID.TID 0000.0001) %MON trcstat_ptracer86_sd         =   1.1483912396179E-06
(PID.TID 0000.0001) %MON trcstat_ptracer86_del2       =   0.0000000000000E+00
(PID.TID 0000.0001) %MON trcstat_ptracer87_max        =   7.3461555984977E-06
(PID.TID 0000.0001) %MON trcstat_ptracer87_min        =   0.0000000000000E+00
(PID.TID 0000.0001) %MON trcstat_ptracer87_mean       =   2.1904083196854E-07
(PID.TID 0000.0001) %MON trcstat_ptracer87_sd         =   1.1483912396179E-06
(PID.TID 0000.0001) %MON trcstat_ptracer87_del2       =   0.0000000000000E+00
(PID.TID 0000.0001) %MON trcstat_ptracer88_max        =   7.3461555984977E-06
(PID.TID 0000.0001) %MON trcstat_ptracer88_min        =   0.0000000000000E+00
(PID.TID 0000.0001) %MON trcstat_ptracer88_mean       =   2.1904083196854E-07
(PID.TID 0000.0001) %MON trcstat_ptracer88_sd         =   1.1483912396179E-06
(PID.TID 0000.0001) %MON trcstat_ptracer88_del2       =   0.0000000000000E+00
(PID.TID 0000.0001) %MON trcstat_ptracer89_max        =   7.3461555984977E-06
(PID.TID 0000.0001) %MON trcstat_ptracer89_min        =   0.0000000000000E+00
(PID.TID 0000.0001) %MON trcstat_ptracer89_mean       =   2.1904083196854E-07
(PID.TID 0000.0001) %MON trcstat_ptracer89_sd         =   1.1483912396179E-06
(PID.TID 0000.0001) %MON trcstat_ptracer89_del2       =   0.0000000000000E+00
(PID.TID 0000.0001) %MON trcstat_ptracer90_max        =   7.3461555984977E-06
(PID.TID 0000.0001) %MON trcstat_ptracer90_min        =   0.0000000000000E+00
(PID.TID 0000.0001) %MON trcstat_ptracer90_mean       =   2.1904083196854E-07
(PID.TID 0000.0001) %MON trcstat_ptracer90_sd         =   1.1483912396179E-06
(PID.TID 0000.0001) %MON trcstat_ptracer90_del2       =   0.0000000000000E+00
(PID.TID 0000.0001) %MON trcstat_ptracer91_max        =   7.3461555984977E-06
(PID.TID 0000.0001) %MON trcstat_ptracer91_min        =   0.0000000000000E+00
(PID.TID 0000.0001) %MON trcstat_ptracer91_mean       =   2.1904083196854E-07
(PID.TID 0000.0001) %MON trcstat_ptracer91_sd         =   1.1483912396179E-06
(PID.TID 0000.0001) %MON trcstat_ptracer91_del2       =   0.0000000000000E+00
(PID.TID 0000.0001) %MON trcstat_ptracer92_max        =   7.3461555984977E-06
(PID.TID 0000.0001) %MON trcstat_ptracer92_min        =   0.0000000000000E+00
(PID.TID 0000.0001) %MON trcstat_ptracer92_mean       =   2.1904083196854E-07
(PID.TID 0000.0001) %MON trcstat_ptracer92_sd         =   1.1483912396179E-06
(PID.TID 0000.0001) %MON trcstat_ptracer92_del2       =   0.0000000000000E+00
(PID.TID 0000.0001) %MON trcstat_ptracer93_max        =   7.3461555984977E-06
(PID.TID 0000.0001) %MON trcstat_ptracer93_min        =   0.0000000000000E+00
(PID.TID 0000.0001) %MON trcstat_ptracer93_mean       =   2.1904083196854E-07
(PID.TID 0000.0001) %MON trcstat_ptracer93_sd         =   1.1483912396179E-06
(PID.TID 0000.0001) %MON trcstat_ptracer93_del2       =   0.0000000000000E+00
(PID.TID 0000.0001) %MON trcstat_ptracer94_max        =   7.3461555984977E-06
(PID.TID 0000.0001) %MON trcstat_ptracer94_min        =   0.0000000000000E+00
(PID.TID 0000.0001) %MON trcstat_ptracer94_mean       =   2.1904083196854E-07
(PID.TID 0000.0001) %MON trcstat_ptracer94_sd         =   1.1483912396179E-06
(PID.TID 0000.0001) %MON trcstat_ptracer94_del2       =   0.0000000000000E+00
(PID.TID 0000.0001) %MON trcstat_ptracer95_max        =   7.3461555984977E-06
(PID.TID 0000.0001) %MON trcstat_ptracer95_min        =   0.0000000000000E+00
(PID.TID 0000.0001) %MON trcstat_ptracer95_mean       =   2.1904083196854E-07
(PID.TID 0000.0001) %MON trcstat_ptracer95_sd         =   1.1483912396179E-06
(PID.TID 0000.0001) %MON trcstat_ptracer95_del2       =   0.0000000000000E+00
(PID.TID 0000.0001) %MON trcstat_ptracer96_max        =   7.3461555984977E-06
(PID.TID 0000.0001) %MON trcstat_ptracer96_min        =   0.0000000000000E+00
(PID.TID 0000.0001) %MON trcstat_ptracer96_mean       =   2.1904083196854E-07
(PID.TID 0000.0001) %MON trcstat_ptracer96_sd         =   1.1483912396179E-06
(PID.TID 0000.0001) %MON trcstat_ptracer96_del2       =   0.0000000000000E+00
(PID.TID 0000.0001) %MON trcstat_ptracer97_max        =   7.3461555984977E-06
(PID.TID 0000.0001) %MON trcstat_ptracer97_min        =   0.0000000000000E+00
(PID.TID 0000.0001) %MON trcstat_ptracer97_mean       =   2.1904083196854E-07
(PID.TID 0000.0001) %MON trcstat_ptracer97_sd         =   1.1483912396179E-06
(PID.TID 0000.0001) %MON trcstat_ptracer97_del2       =   0.0000000000000E+00
(PID.TID 0000.0001) %MON trcstat_ptracer98_max        =   7.3461555984977E-06
(PID.TID 0000.0001) %MON trcstat_ptracer98_min        =   0.0000000000000E+00
(PID.TID 0000.0001) %MON trcstat_ptracer98_mean       =   2.1904083196854E-07
(PID.TID 0000.0001) %MON trcstat_ptracer98_sd         =   1.1483912396179E-06
(PID.TID 0000.0001) %MON trcstat_ptracer98_del2       =   0.0000000000000E+00
(PID.TID 0000.0001) %MON trcstat_ptracer99_max        =   7.3461555984977E-06
(PID.TID 0000.0001) %MON trcstat_ptracer99_min        =   0.0000000000000E+00
(PID.TID 0000.0001) %MON trcstat_ptracer99_mean       =   2.1904083196854E-07
(PID.TID 0000.0001) %MON trcstat_ptracer99_sd         =   1.1483912396179E-06
(PID.TID 0000.0001) %MON trcstat_ptracer99_del2       =   0.0000000000000E+00
(PID.TID 0000.0001) // =======================================================
(PID.TID 0000.0001) // End MONITOR ptracers field statistics
(PID.TID 0000.0001) // =======================================================
S/R EXTERNAL_FIELDS_LOAD: Reading new data:   12    1         0  0.000000000000E+00
(PID.TID 0000.0001)  MDS_READ_FIELD: opening global file: ../input/input/loc1_temp_monsurf.bin
(PID.TID 0000.0001)  MDS_READ_FIELD: opening global file: ../input/input/loc1_temp_monsurf.bin
time,SST,SSS,fu,fv,Q,E-P,i0,i1,a,b =   0.0000E+00  2.5676E+01  0.0000E+00  0.0000E+00  0.0000E+00  0.0000E+00  0.0000E+00    12     1  5.0000E-01  5.0000E-01
time,fu0,fu1,fu =   0.0000E+00  0.0000E+00  0.0000E+00  0.0000E+00  5.000000000000000E-01  5.000000000000000E-01
(PID.TID 0000.0001) S/R DARWIN_FIELDS_LOAD: Reading forcing data  0.000000000000E+00          0
(PID.TID 0000.0001)  MDS_READ_FIELD: opening global file: ../input/input/loc1_FeFlux_monsurf.bin
(PID.TID 0000.0001)  MDS_READ_FIELD: opening global file: ../input/input/loc1_FeFlux_monsurf.bin
(PID.TID 0000.0001)  MDS_READ_FIELD: opening global file: ../input/input/loc1_oasim_edp_below.bin
(PID.TID 0000.0001)  MDS_READ_FIELD: opening global file: ../input/input/loc1_oasim_edp_below.bin
(PID.TID 0000.0001)  MDS_READ_FIELD: opening global file: ../input/input/loc1_oasim_edp_below.bin
(PID.TID 0000.0001)  MDS_READ_FIELD: opening global file: ../input/input/loc1_oasim_edp_below.bin
(PID.TID 0000.0001)  MDS_READ_FIELD: opening global file: ../input/input/loc1_oasim_edp_below.bin
(PID.TID 0000.0001)  MDS_READ_FIELD: opening global file: ../input/input/loc1_oasim_edp_below.bin
(PID.TID 0000.0001)  MDS_READ_FIELD: opening global file: ../input/input/loc1_oasim_edp_below.bin
(PID.TID 0000.0001)  MDS_READ_FIELD: opening global file: ../input/input/loc1_oasim_edp_below.bin
(PID.TID 0000.0001)  MDS_READ_FIELD: opening global file: ../input/input/loc1_oasim_edp_below.bin
(PID.TID 0000.0001)  MDS_READ_FIELD: opening global file: ../input/input/loc1_oasim_edp_below.bin
(PID.TID 0000.0001)  MDS_READ_FIELD: opening global file: ../input/input/loc1_oasim_edp_below.bin
(PID.TID 0000.0001)  MDS_READ_FIELD: opening global file: ../input/input/loc1_oasim_edp_below.bin
(PID.TID 0000.0001)  MDS_READ_FIELD: opening global file: ../input/input/loc1_oasim_edp_below.bin
(PID.TID 0000.0001)  MDS_READ_FIELD: opening global file: ../input/input/loc1_oasim_edp_below.bin
(PID.TID 0000.0001)  MDS_READ_FIELD: opening global file: ../input/input/loc1_oasim_edp_below.bin
(PID.TID 0000.0001)  MDS_READ_FIELD: opening global file: ../input/input/loc1_oasim_edp_below.bin
(PID.TID 0000.0001)  MDS_READ_FIELD: opening global file: ../input/input/loc1_oasim_edp_below.bin
(PID.TID 0000.0001)  MDS_READ_FIELD: opening global file: ../input/input/loc1_oasim_edp_below.bin
(PID.TID 0000.0001)  MDS_READ_FIELD: opening global file: ../input/input/loc1_oasim_edp_below.bin
(PID.TID 0000.0001)  MDS_READ_FIELD: opening global file: ../input/input/loc1_oasim_edp_below.bin
(PID.TID 0000.0001)  MDS_READ_FIELD: opening global file: ../input/input/loc1_oasim_edp_below.bin
(PID.TID 0000.0001)  MDS_READ_FIELD: opening global file: ../input/input/loc1_oasim_edp_below.bin
(PID.TID 0000.0001)  MDS_READ_FIELD: opening global file: ../input/input/loc1_oasim_edp_below.bin
(PID.TID 0000.0001)  MDS_READ_FIELD: opening global file: ../input/input/loc1_oasim_edp_below.bin
(PID.TID 0000.0001)  MDS_READ_FIELD: opening global file: ../input/input/loc1_oasim_edp_below.bin
(PID.TID 0000.0001)  MDS_READ_FIELD: opening global file: ../input/input/loc1_oasim_edp_below.bin
(PID.TID 0000.0001)  MDS_READ_FIELD: opening global file: ../input/input/loc1_oasim_esp_below.bin
(PID.TID 0000.0001)  MDS_READ_FIELD: opening global file: ../input/input/loc1_oasim_esp_below.bin
(PID.TID 0000.0001)  MDS_READ_FIELD: opening global file: ../input/input/loc1_oasim_esp_below.bin
(PID.TID 0000.0001)  MDS_READ_FIELD: opening global file: ../input/input/loc1_oasim_esp_below.bin
(PID.TID 0000.0001)  MDS_READ_FIELD: opening global file: ../input/input/loc1_oasim_esp_below.bin
(PID.TID 0000.0001)  MDS_READ_FIELD: opening global file: ../input/input/loc1_oasim_esp_below.bin
(PID.TID 0000.0001)  MDS_READ_FIELD: opening global file: ../input/input/loc1_oasim_esp_below.bin
(PID.TID 0000.0001)  MDS_READ_FIELD: opening global file: ../input/input/loc1_oasim_esp_below.bin
(PID.TID 0000.0001)  MDS_READ_FIELD: opening global file: ../input/input/loc1_oasim_esp_below.bin
(PID.TID 0000.0001)  MDS_READ_FIELD: opening global file: ../input/input/loc1_oasim_esp_below.bin
(PID.TID 0000.0001)  MDS_READ_FIELD: opening global file: ../input/input/loc1_oasim_esp_below.bin
(PID.TID 0000.0001)  MDS_READ_FIELD: opening global file: ../input/input/loc1_oasim_esp_below.bin
(PID.TID 0000.0001)  MDS_READ_FIELD: opening global file: ../input/input/loc1_oasim_esp_below.bin
(PID.TID 0000.0001)  MDS_READ_FIELD: opening global file: ../input/input/loc1_oasim_esp_below.bin
(PID.TID 0000.0001)  MDS_READ_FIELD: opening global file: ../input/input/loc1_oasim_esp_below.bin
(PID.TID 0000.0001)  MDS_READ_FIELD: opening global file: ../input/input/loc1_oasim_esp_below.bin
(PID.TID 0000.0001)  MDS_READ_FIELD: opening global file: ../input/input/loc1_oasim_esp_below.bin
(PID.TID 0000.0001)  MDS_READ_FIELD: opening global file: ../input/input/loc1_oasim_esp_below.bin
(PID.TID 0000.0001)  MDS_READ_FIELD: opening global file: ../input/input/loc1_oasim_esp_below.bin
(PID.TID 0000.0001)  MDS_READ_FIELD: opening global file: ../input/input/loc1_oasim_esp_below.bin
(PID.TID 0000.0001)  MDS_READ_FIELD: opening global file: ../input/input/loc1_oasim_esp_below.bin
(PID.TID 0000.0001)  MDS_READ_FIELD: opening global file: ../input/input/loc1_oasim_esp_below.bin
(PID.TID 0000.0001)  MDS_READ_FIELD: opening global file: ../input/input/loc1_oasim_esp_below.bin
(PID.TID 0000.0001)  MDS_READ_FIELD: opening global file: ../input/input/loc1_oasim_esp_below.bin
(PID.TID 0000.0001)  MDS_READ_FIELD: opening global file: ../input/input/loc1_oasim_esp_below.bin
(PID.TID 0000.0001)  MDS_READ_FIELD: opening global file: ../input/input/loc1_oasim_esp_below.bin
(PID.TID 0000.0001) // =======================================================
(PID.TID 0000.0001) // Begin MONITOR dynamic field statistics
(PID.TID 0000.0001) // =======================================================
(PID.TID 0000.0001) %MON time_tsnumber                =                     1
(PID.TID 0000.0001) %MON time_secondsf                =   3.6000000000000E+03
(PID.TID 0000.0001) %MON dynstat_eta_max              =   0.0000000000000E+00
(PID.TID 0000.0001) %MON dynstat_eta_min              =   0.0000000000000E+00
(PID.TID 0000.0001) %MON dynstat_eta_mean             =   0.0000000000000E+00
(PID.TID 0000.0001) %MON dynstat_eta_sd               =   0.0000000000000E+00
(PID.TID 0000.0001) %MON dynstat_eta_del2             =   0.0000000000000E+00
(PID.TID 0000.0001) %MON dynstat_uvel_max             =   0.0000000000000E+00
(PID.TID 0000.0001) %MON dynstat_uvel_min             =   0.0000000000000E+00
(PID.TID 0000.0001) %MON dynstat_uvel_mean            =   0.0000000000000E+00
(PID.TID 0000.0001) %MON dynstat_uvel_sd              =   0.0000000000000E+00
(PID.TID 0000.0001) %MON dynstat_uvel_del2            =   0.0000000000000E+00
(PID.TID 0000.0001) %MON dynstat_vvel_max             =   0.0000000000000E+00
(PID.TID 0000.0001) %MON dynstat_vvel_min             =   0.0000000000000E+00
(PID.TID 0000.0001) %MON dynstat_vvel_mean            =   0.0000000000000E+00
(PID.TID 0000.0001) %MON dynstat_vvel_sd              =   0.0000000000000E+00
(PID.TID 0000.0001) %MON dynstat_vvel_del2            =   0.0000000000000E+00
(PID.TID 0000.0001) %MON dynstat_wvel_max             =   0.0000000000000E+00
(PID.TID 0000.0001) %MON dynstat_wvel_min             =   0.0000000000000E+00
(PID.TID 0000.0001) %MON dynstat_wvel_mean            =   0.0000000000000E+00
(PID.TID 0000.0001) %MON dynstat_wvel_sd              =   0.0000000000000E+00
(PID.TID 0000.0001) %MON dynstat_wvel_del2            =   0.0000000000000E+00
(PID.TID 0000.0001) %MON dynstat_theta_max            =   2.6335817374515E+01
(PID.TID 0000.0001) %MON dynstat_theta_min            =   2.6737003185748E+00
(PID.TID 0000.0001) %MON dynstat_theta_mean           =   5.4735670012030E+00
(PID.TID 0000.0001) %MON dynstat_theta_sd             =   5.1970860626953E+00
(PID.TID 0000.0001) %MON dynstat_theta_del2           =   0.0000000000000E+00
(PID.TID 0000.0001) %MON dynstat_salt_max             =   3.5000000000000E+01
(PID.TID 0000.0001) %MON dynstat_salt_min             =   3.5000000000000E+01
(PID.TID 0000.0001) %MON dynstat_salt_mean            =   3.5000000000000E+01
(PID.TID 0000.0001) %MON dynstat_salt_sd              =   7.1054273576010E-15
(PID.TID 0000.0001) %MON dynstat_salt_del2            =   0.0000000000000E+00
(PID.TID 0000.0001) %MON dynstat_sst_max              =   2.6335817374515E+01
(PID.TID 0000.0001) %MON dynstat_sst_min              =   2.6335817374515E+01
(PID.TID 0000.0001) %MON dynstat_sst_mean             =   2.6335817374515E+01
(PID.TID 0000.0001) %MON dynstat_sst_sd               =   0.0000000000000E+00
(PID.TID 0000.0001) %MON dynstat_sst_del2             =   0.0000000000000E+00
(PID.TID 0000.0001) %MON dynstat_sss_max              =   3.5000000000000E+01
(PID.TID 0000.0001) %MON dynstat_sss_min              =   3.5000000000000E+01
(PID.TID 0000.0001) %MON dynstat_sss_mean             =   3.5000000000000E+01
(PID.TID 0000.0001) %MON dynstat_sss_sd               =   0.0000000000000E+00
(PID.TID 0000.0001) %MON dynstat_sss_del2             =   0.0000000000000E+00
(PID.TID 0000.0001) %MON forcing_qnet_max             =   0.0000000000000E+00
(PID.TID 0000.0001) %MON forcing_qnet_min             =   0.0000000000000E+00
(PID.TID 0000.0001) %MON forcing_qnet_mean            =   0.0000000000000E+00
(PID.TID 0000.0001) %MON forcing_qnet_sd              =   0.0000000000000E+00
(PID.TID 0000.0001) %MON forcing_qnet_del2            =   0.0000000000000E+00
(PID.TID 0000.0001) %MON forcing_qsw_max              =   0.0000000000000E+00
(PID.TID 0000.0001) %MON forcing_qsw_min              =   0.0000000000000E+00
(PID.TID 0000.0001) %MON forcing_qsw_mean             =   0.0000000000000E+00
(PID.TID 0000.0001) %MON forcing_qsw_sd               =   0.0000000000000E+00
(PID.TID 0000.0001) %MON forcing_qsw_del2             =   0.0000000000000E+00
(PID.TID 0000.0001) %MON forcing_empmr_max            =   0.0000000000000E+00
(PID.TID 0000.0001) %MON forcing_empmr_min            =   0.0000000000000E+00
(PID.TID 0000.0001) %MON forcing_empmr_mean           =   0.0000000000000E+00
(PID.TID 0000.0001) %MON forcing_empmr_sd             =   0.0000000000000E+00
(PID.TID 0000.0001) %MON forcing_empmr_del2           =   0.0000000000000E+00
(PID.TID 0000.0001) %MON forcing_fu_max               =   0.0000000000000E+00
(PID.TID 0000.0001) %MON forcing_fu_min               =   0.0000000000000E+00
(PID.TID 0000.0001) %MON forcing_fu_mean              =   0.0000000000000E+00
(PID.TID 0000.0001) %MON forcing_fu_sd                =   0.0000000000000E+00
(PID.TID 0000.0001) %MON forcing_fu_del2              =   0.0000000000000E+00
(PID.TID 0000.0001) %MON forcing_fv_max               =   0.0000000000000E+00
(PID.TID 0000.0001) %MON forcing_fv_min               =   0.0000000000000E+00
(PID.TID 0000.0001) %MON forcing_fv_mean              =   0.0000000000000E+00
(PID.TID 0000.0001) %MON forcing_fv_sd                =   0.0000000000000E+00
(PID.TID 0000.0001) %MON forcing_fv_del2              =   0.0000000000000E+00
(PID.TID 0000.0001) %MON advcfl_uvel_max              =   0.0000000000000E+00
(PID.TID 0000.0001) %MON advcfl_vvel_max              =   0.0000000000000E+00
(PID.TID 0000.0001) %MON advcfl_wvel_max              =   0.0000000000000E+00
(PID.TID 0000.0001) %MON advcfl_W_hf_max              =   0.0000000000000E+00
(PID.TID 0000.0001) %MON pe_b_mean                    =   0.0000000000000E+00
(PID.TID 0000.0001) %MON ke_max                       =   0.0000000000000E+00
(PID.TID 0000.0001) %MON ke_mean                      =   0.0000000000000E+00
(PID.TID 0000.0001) %MON ke_vol                       =   4.1199767883485E+13
(PID.TID 0000.0001) %MON vort_r_min                   =   0.0000000000000E+00
(PID.TID 0000.0001) %MON vort_r_max                   =   0.0000000000000E+00
(PID.TID 0000.0001) %MON vort_a_mean                  =  -4.5067801836625E-05
(PID.TID 0000.0001) %MON vort_a_sd                    =  -4.1359030627651E-25
(PID.TID 0000.0001) %MON vort_p_mean                  =  -4.5067801836625E-05
(PID.TID 0000.0001) %MON vort_p_sd                    =   0.0000000000000E+00
(PID.TID 0000.0001) %MON surfExpan_theta_mean         =   0.0000000000000E+00
(PID.TID 0000.0001) %MON surfExpan_salt_mean          =   0.0000000000000E+00
(PID.TID 0000.0001) // =======================================================
(PID.TID 0000.0001) // End MONITOR dynamic field statistics
(PID.TID 0000.0001) // =======================================================
(PID.TID 0000.0001) // =======================================================
(PID.TID 0000.0001) // Begin MONITOR ptracer field statistics
(PID.TID 0000.0001) // =======================================================
(PID.TID 0000.0001) %MON trcstat_ptracer01_max        =   2.2436999316292E+00
(PID.TID 0000.0001) %MON trcstat_ptracer01_min        =   2.1025169062262E-01
(PID.TID 0000.0001) %MON trcstat_ptracer01_mean       =   1.5821338554871E+00
(PID.TID 0000.0001) %MON trcstat_ptracer01_sd         =   4.6735034789626E-01
(PID.TID 0000.0001) %MON trcstat_ptracer01_del2       =   0.0000000000000E+00
(PID.TID 0000.0001) %MON trcstat_ptracer02_max        =   3.3903497946887E+01
(PID.TID 0000.0001) %MON trcstat_ptracer02_min        =   4.6345554471349E-02
(PID.TID 0000.0001) %MON trcstat_ptracer02_mean       =   2.3502390245515E+01
(PID.TID 0000.0001) %MON trcstat_ptracer02_sd         =   7.8162013486354E+00
(PID.TID 0000.0001) %MON trcstat_ptracer02_del2       =   0.0000000000000E+00
(PID.TID 0000.0001) %MON trcstat_ptracer03_max        =   1.3001301489497E-03
(PID.TID 0000.0001) %MON trcstat_ptracer03_min        =   1.2999853935924E-03
(PID.TID 0000.0001) %MON trcstat_ptracer03_mean       =   1.2999859146884E-03
(PID.TID 0000.0001) %MON trcstat_ptracer03_sd         =   7.7294089094560E-09
(PID.TID 0000.0001) %MON trcstat_ptracer03_del2       =   0.0000000000000E+00
(PID.TID 0000.0001) %MON trcstat_ptracer04_max        =   3.9387401347897E+01
(PID.TID 0000.0001) %MON trcstat_ptracer04_min        =   1.2247990263157E+00
(PID.TID 0000.0001) %MON trcstat_ptracer04_mean       =   2.9621889385971E+01
(PID.TID 0000.0001) %MON trcstat_ptracer04_sd         =   1.1270586829934E+01
(PID.TID 0000.0001) %MON trcstat_ptracer04_del2       =   0.0000000000000E+00
(PID.TID 0000.0001) %MON trcstat_ptracer05_max        =   5.1127939744204E-03
(PID.TID 0000.0001) %MON trcstat_ptracer05_min        =   1.8021877931925E-35
(PID.TID 0000.0001) %MON trcstat_ptracer05_mean       =   2.1469127023586E-04
(PID.TID 0000.0001) %MON trcstat_ptracer05_sd         =   9.2426018351900E-04
(PID.TID 0000.0001) %MON trcstat_ptracer05_del2       =   0.0000000000000E+00
(PID.TID 0000.0001) %MON trcstat_ptracer06_max        =   8.1804703590726E-02
(PID.TID 0000.0001) %MON trcstat_ptracer06_min        =   2.8835004691081E-34
(PID.TID 0000.0001) %MON trcstat_ptracer06_mean       =   3.4350603237738E-03
(PID.TID 0000.0001) %MON trcstat_ptracer06_sd         =   1.4788162936304E-02
(PID.TID 0000.0001) %MON trcstat_ptracer06_del2       =   0.0000000000000E+00
(PID.TID 0000.0001) %MON trcstat_ptracer07_max        =   5.1127936147087E-06
(PID.TID 0000.0001) %MON trcstat_ptracer07_min        =   1.8021850847697E-38
(PID.TID 0000.0001) %MON trcstat_ptracer07_mean       =   2.1469127054224E-07
(PID.TID 0000.0001) %MON trcstat_ptracer07_sd         =   9.2426018317725E-07
(PID.TID 0000.0001) %MON trcstat_ptracer07_del2       =   0.0000000000000E+00
(PID.TID 0000.0001) %MON trcstat_ptracer08_max        =   1.0346609104452E-09
(PID.TID 0000.0001) %MON trcstat_ptracer08_min        =   2.3081610895631E-37
(PID.TID 0000.0001) %MON trcstat_ptracer08_mean       =   1.3683055008114E-10
(PID.TID 0000.0001) %MON trcstat_ptracer08_sd         =   2.5027159397438E-10
(PID.TID 0000.0001) %MON trcstat_ptracer08_del2       =   0.0000000000000E+00
(PID.TID 0000.0001) %MON trcstat_ptracer09_max        =   1.6554574567122E-08
(PID.TID 0000.0001) %MON trcstat_ptracer09_min        =   3.6930577433009E-36
(PID.TID 0000.0001) %MON trcstat_ptracer09_mean       =   2.1892888012982E-09
(PID.TID 0000.0001) %MON trcstat_ptracer09_sd         =   4.0043455035901E-09
(PID.TID 0000.0001) %MON trcstat_ptracer09_del2       =   0.0000000000000E+00
(PID.TID 0000.0001) %MON trcstat_ptracer10_max        =   1.0346608749349E-12
(PID.TID 0000.0001) %MON trcstat_ptracer10_min        =   2.3081609238528E-40
(PID.TID 0000.0001) %MON trcstat_ptracer10_mean       =   1.3683054105005E-13
(PID.TID 0000.0001) %MON trcstat_ptracer10_sd         =   2.5027157969983E-13
(PID.TID 0000.0001) %MON trcstat_ptracer10_del2       =   0.0000000000000E+00
(PID.TID 0000.0001) %MON trcstat_ptracer11_max        =   4.2484844982697E-09
(PID.TID 0000.0001) %MON trcstat_ptracer11_min        =   2.3720837755898E-43
(PID.TID 0000.0001) %MON trcstat_ptracer11_mean       =   5.1499656955118E-10
(PID.TID 0000.0001) %MON trcstat_ptracer11_sd         =   1.0364343878511E-09
(PID.TID 0000.0001) %MON trcstat_ptracer11_del2       =   0.0000000000000E+00
(PID.TID 0000.0001) %MON trcstat_ptracer12_max        =   1.0346667027711E-09
(PID.TID 0000.0001) %MON trcstat_ptracer12_min        =   2.3081610895631E-37
(PID.TID 0000.0001) %MON trcstat_ptracer12_mean       =   1.3683071464001E-10
(PID.TID 0000.0001) %MON trcstat_ptracer12_sd         =   2.5027214577145E-10
(PID.TID 0000.0001) %MON trcstat_ptracer12_del2       =   0.0000000000000E+00
(PID.TID 0000.0001) %MON trcstat_ptracer13_max        =   1.6554667244338E-08
(PID.TID 0000.0001) %MON trcstat_ptracer13_min        =   3.6930577433009E-36
(PID.TID 0000.0001) %MON trcstat_ptracer13_mean       =   2.1892914342401E-09
(PID.TID 0000.0001) %MON trcstat_ptracer13_sd         =   4.0043543323433E-09
(PID.TID 0000.0001) %MON trcstat_ptracer13_del2       =   0.0000000000000E+00
(PID.TID 0000.0001) %MON trcstat_ptracer14_max        =   1.0346666672608E-12
(PID.TID 0000.0001) %MON trcstat_ptracer14_min        =   2.3081609238528E-40
(PID.TID 0000.0001) %MON trcstat_ptracer14_mean       =   1.3683070560892E-13
(PID.TID 0000.0001) %MON trcstat_ptracer14_sd         =   2.5027213149694E-13
(PID.TID 0000.0001) %MON trcstat_ptracer14_del2       =   0.0000000000000E+00
(PID.TID 0000.0001) %MON trcstat_ptracer15_max        =   4.2484844983868E-09
(PID.TID 0000.0001) %MON trcstat_ptracer15_min        =   2.3720837755898E-43
(PID.TID 0000.0001) %MON trcstat_ptracer15_mean       =   5.1500087923584E-10
(PID.TID 0000.0001) %MON trcstat_ptracer15_sd         =   1.0364322467346E-09
(PID.TID 0000.0001) %MON trcstat_ptracer15_del2       =   0.0000000000000E+00
(PID.TID 0000.0001) %MON trcstat_ptracer16_max        =   2.7223320143064E-04
(PID.TID 0000.0001) %MON trcstat_ptracer16_min        =   1.1738639280032E-06
(PID.TID 0000.0001) %MON trcstat_ptracer16_mean       =   7.8891794905857E-05
(PID.TID 0000.0001) %MON trcstat_ptracer16_sd         =   9.6565104762264E-05
(PID.TID 0000.0001) %MON trcstat_ptracer16_del2       =   0.0000000000000E+00
(PID.TID 0000.0001) %MON trcstat_ptracer17_max        =   4.3557312228902E-03
(PID.TID 0000.0001) %MON trcstat_ptracer17_min        =   1.8781822848050E-05
(PID.TID 0000.0001) %MON trcstat_ptracer17_mean       =   1.2622687184937E-03
(PID.TID 0000.0001) %MON trcstat_ptracer17_sd         =   1.5450416761962E-03
(PID.TID 0000.0001) %MON trcstat_ptracer17_del2       =   0.0000000000000E+00
(PID.TID 0000.0001) %MON trcstat_ptracer18_max        =   2.7223321719346E-07
(PID.TID 0000.0001) %MON trcstat_ptracer18_min        =   1.1738637993409E-09
(PID.TID 0000.0001) %MON trcstat_ptracer18_mean       =   7.8891795432038E-08
(PID.TID 0000.0001) %MON trcstat_ptracer18_sd         =   9.6565106819750E-08
(PID.TID 0000.0001) %MON trcstat_ptracer18_del2       =   0.0000000000000E+00
(PID.TID 0000.0001) %MON trcstat_ptracer19_max        =   1.6249560323349E-02
(PID.TID 0000.0001) %MON trcstat_ptracer19_min        =   1.1386925448278E-03
(PID.TID 0000.0001) %MON trcstat_ptracer19_mean       =   5.4889823698926E-03
(PID.TID 0000.0001) %MON trcstat_ptracer19_sd         =   5.1715467250432E-03
(PID.TID 0000.0001) %MON trcstat_ptracer19_del2       =   0.0000000000000E+00
(PID.TID 0000.0001) %MON trcstat_ptracer20_max        =   2.5604814918941E-02
(PID.TID 0000.0001) %MON trcstat_ptracer20_min        =   1.8763301829746E-07
(PID.TID 0000.0001) %MON trcstat_ptracer20_mean       =   6.0489301260111E-04
(PID.TID 0000.0001) %MON trcstat_ptracer20_sd         =   3.2469471977822E-03
(PID.TID 0000.0001) %MON trcstat_ptracer20_del2       =   0.0000000000000E+00
(PID.TID 0000.0001) %MON trcstat_ptracer21_max        =   1.8255238082953E-02
(PID.TID 0000.0001) %MON trcstat_ptracer21_min        =   3.8791489719394E-06
(PID.TID 0000.0001) %MON trcstat_ptracer21_mean       =   6.0469564711478E-04
(PID.TID 0000.0001) %MON trcstat_ptracer21_sd         =   1.9426793334257E-03
(PID.TID 0000.0001) %MON trcstat_ptracer21_del2       =   0.0000000000000E+00
(PID.TID 0000.0001) %MON trcstat_ptracer22_max        =   7.3153367269746E-06
(PID.TID 0000.0001) %MON trcstat_ptracer22_min        =   9.5459218922750E-37
(PID.TID 0000.0001) %MON trcstat_ptracer22_mean       =   2.1821999712997E-07
(PID.TID 0000.0001) %MON trcstat_ptracer22_sd         =   1.1435354546391E-06
(PID.TID 0000.0001) %MON trcstat_ptracer22_del2       =   0.0000000000000E+00
(PID.TID 0000.0001) %MON trcstat_ptracer23_max        =   7.3556295352249E-06
(PID.TID 0000.0001) %MON trcstat_ptracer23_min        =   3.2877078143340E-39
(PID.TID 0000.0001) %MON trcstat_ptracer23_mean       =   2.1924751505515E-07
(PID.TID 0000.0001) %MON trcstat_ptracer23_sd         =   1.1499577886531E-06
(PID.TID 0000.0001) %MON trcstat_ptracer23_del2       =   0.0000000000000E+00
(PID.TID 0000.0001) %MON trcstat_ptracer24_max        =   7.3153367269749E-06
(PID.TID 0000.0001) %MON trcstat_ptracer24_min        =   9.5459218922750E-37
(PID.TID 0000.0001) %MON trcstat_ptracer24_mean       =   2.1812816179848E-07
(PID.TID 0000.0001) %MON trcstat_ptracer24_sd         =   1.1434544520019E-06
(PID.TID 0000.0001) %MON trcstat_ptracer24_del2       =   0.0000000000000E+00
(PID.TID 0000.0001) %MON trcstat_ptracer25_max        =   7.3853787314893E-06
(PID.TID 0000.0001) %MON trcstat_ptracer25_min        =   9.5459218922750E-37
(PID.TID 0000.0001) %MON trcstat_ptracer25_mean       =   2.2021784525650E-07
(PID.TID 0000.0001) %MON trcstat_ptracer25_sd         =   1.1541555306361E-06
(PID.TID 0000.0001) %MON trcstat_ptracer25_del2       =   0.0000000000000E+00
(PID.TID 0000.0001) %MON trcstat_ptracer26_max        =   7.3763374793581E-06
(PID.TID 0000.0001) %MON trcstat_ptracer26_min        =   3.2877078143340E-39
(PID.TID 0000.0001) %MON trcstat_ptracer26_mean       =   2.1982212709396E-07
(PID.TID 0000.0001) %MON trcstat_ptracer26_sd         =   1.1529328720772E-06
(PID.TID 0000.0001) %MON trcstat_ptracer26_del2       =   0.0000000000000E+00
(PID.TID 0000.0001) %MON trcstat_ptracer27_max        =   7.3154912431485E-06
(PID.TID 0000.0001) %MON trcstat_ptracer27_min        =   3.2877078143340E-39
(PID.TID 0000.0001) %MON trcstat_ptracer27_mean       =   2.1812816630548E-07
(PID.TID 0000.0001) %MON trcstat_ptracer27_sd         =   1.1436004531763E-06
(PID.TID 0000.0001) %MON trcstat_ptracer27_del2       =   0.0000000000000E+00
(PID.TID 0000.0001) %MON trcstat_ptracer28_max        =   7.3509030164775E-06
(PID.TID 0000.0001) %MON trcstat_ptracer28_min        =   3.2877078143340E-39
(PID.TID 0000.0001) %MON trcstat_ptracer28_mean       =   2.1910862960743E-07
(PID.TID 0000.0001) %MON trcstat_ptracer28_sd         =   1.1490996266593E-06
(PID.TID 0000.0001) %MON trcstat_ptracer28_del2       =   0.0000000000000E+00
(PID.TID 0000.0001) %MON trcstat_ptracer29_max        =   7.3154912431477E-06
(PID.TID 0000.0001) %MON trcstat_ptracer29_min        =   3.2877078143340E-39
(PID.TID 0000.0001) %MON trcstat_ptracer29_mean       =   2.1817272212105E-07
(PID.TID 0000.0001) %MON trcstat_ptracer29_sd         =   1.1437687301888E-06
(PID.TID 0000.0001) %MON trcstat_ptracer29_del2       =   0.0000000000000E+00
(PID.TID 0000.0001) %MON trcstat_ptracer30_max        =   7.3294424534594E-06
(PID.TID 0000.0001) %MON trcstat_ptracer30_min        =   3.2877078143340E-39
(PID.TID 0000.0001) %MON trcstat_ptracer30_mean       =   2.1877038216577E-07
(PID.TID 0000.0001) %MON trcstat_ptracer30_sd         =   1.1463687147734E-06
(PID.TID 0000.0001) %MON trcstat_ptracer30_del2       =   0.0000000000000E+00
(PID.TID 0000.0001) %MON trcstat_ptracer31_max        =   7.3882262434235E-06
(PID.TID 0000.0001) %MON trcstat_ptracer31_min        =   3.2877078143340E-39
(PID.TID 0000.0001) %MON trcstat_ptracer31_mean       =   2.2019035979954E-07
(PID.TID 0000.0001) %MON trcstat_ptracer31_sd         =   1.1548358337029E-06
(PID.TID 0000.0001) %MON trcstat_ptracer31_del2       =   0.0000000000000E+00
(PID.TID 0000.0001) %MON trcstat_ptracer32_max        =   7.3154912431496E-06
(PID.TID 0000.0001) %MON trcstat_ptracer32_min        =   3.2877078143340E-39
(PID.TID 0000.0001) %MON trcstat_ptracer32_mean       =   2.1812816178262E-07
(PID.TID 0000.0001) %MON trcstat_ptracer32_sd         =   1.1436004539495E-06
(PID.TID 0000.0001) %MON trcstat_ptracer32_del2       =   0.0000000000000E+00
(PID.TID 0000.0001) %MON trcstat_ptracer33_max        =   7.3154912431477E-06
(PID.TID 0000.0001) %MON trcstat_ptracer33_min        =   3.2877078143340E-39
(PID.TID 0000.0001) %MON trcstat_ptracer33_mean       =   2.1812816178256E-07
(PID.TID 0000.0001) %MON trcstat_ptracer33_sd         =   1.1436004539492E-06
(PID.TID 0000.0001) %MON trcstat_ptracer33_del2       =   0.0000000000000E+00
(PID.TID 0000.0001) %MON trcstat_ptracer34_max        =   7.3153367264069E-06
(PID.TID 0000.0001) %MON trcstat_ptracer34_min        =   9.5459218922750E-37
(PID.TID 0000.0001) %MON trcstat_ptracer34_mean       =   2.1812829664438E-07
(PID.TID 0000.0001) %MON trcstat_ptracer34_sd         =   1.1434544269017E-06
(PID.TID 0000.0001) %MON trcstat_ptracer34_del2       =   0.0000000000000E+00
(PID.TID 0000.0001) %MON trcstat_ptracer35_max        =   7.3154912431479E-06
(PID.TID 0000.0001) %MON trcstat_ptracer35_min        =   3.2877078143340E-39
(PID.TID 0000.0001) %MON trcstat_ptracer35_mean       =   2.1812816178257E-07
(PID.TID 0000.0001) %MON trcstat_ptracer35_sd         =   1.1436004539493E-06
(PID.TID 0000.0001) %MON trcstat_ptracer35_del2       =   0.0000000000000E+00
(PID.TID 0000.0001) %MON trcstat_ptracer36_max        =   7.3991444305988E-06
(PID.TID 0000.0001) %MON trcstat_ptracer36_min        =   3.2877078143340E-39
(PID.TID 0000.0001) %MON trcstat_ptracer36_mean       =   2.2051253426655E-07
(PID.TID 0000.0001) %MON trcstat_ptracer36_sd         =   1.1565309270156E-06
(PID.TID 0000.0001) %MON trcstat_ptracer36_del2       =   0.0000000000000E+00
(PID.TID 0000.0001) %MON trcstat_ptracer37_max        =   7.3153367269750E-06
(PID.TID 0000.0001) %MON trcstat_ptracer37_min        =   9.5459218922750E-37
(PID.TID 0000.0001) %MON trcstat_ptracer37_mean       =   2.1813025107176E-07
(PID.TID 0000.0001) %MON trcstat_ptracer37_sd         =   1.1434541326136E-06
(PID.TID 0000.0001) %MON trcstat_ptracer37_del2       =   0.0000000000000E+00
(PID.TID 0000.0001) %MON trcstat_ptracer38_max        =   7.3153367269750E-06
(PID.TID 0000.0001) %MON trcstat_ptracer38_min        =   9.5459218922750E-37
(PID.TID 0000.0001) %MON trcstat_ptracer38_mean       =   2.1812816179849E-07
(PID.TID 0000.0001) %MON trcstat_ptracer38_sd         =   1.1434544520019E-06
(PID.TID 0000.0001) %MON trcstat_ptracer38_del2       =   0.0000000000000E+00
(PID.TID 0000.0001) %MON trcstat_ptracer39_max        =   7.3154912431498E-06
(PID.TID 0000.0001) %MON trcstat_ptracer39_min        =   3.2877078143340E-39
(PID.TID 0000.0001) %MON trcstat_ptracer39_mean       =   2.1812816178263E-07
(PID.TID 0000.0001) %MON trcstat_ptracer39_sd         =   1.1436004539495E-06
(PID.TID 0000.0001) %MON trcstat_ptracer39_del2       =   0.0000000000000E+00
(PID.TID 0000.0001) %MON trcstat_ptracer40_max        =   7.3505563280287E-06
(PID.TID 0000.0001) %MON trcstat_ptracer40_min        =   9.5459218922750E-37
(PID.TID 0000.0001) %MON trcstat_ptracer40_mean       =   2.1926150336427E-07
(PID.TID 0000.0001) %MON trcstat_ptracer40_sd         =   1.1489358440335E-06
(PID.TID 0000.0001) %MON trcstat_ptracer40_del2       =   0.0000000000000E+00
(PID.TID 0000.0001) %MON trcstat_ptracer41_max        =   7.3153367264073E-06
(PID.TID 0000.0001) %MON trcstat_ptracer41_min        =   9.5459218922750E-37
(PID.TID 0000.0001) %MON trcstat_ptracer41_mean       =   2.1812816179664E-07
(PID.TID 0000.0001) %MON trcstat_ptracer41_sd         =   1.1434544519138E-06
(PID.TID 0000.0001) %MON trcstat_ptracer41_del2       =   0.0000000000000E+00
(PID.TID 0000.0001) %MON trcstat_ptracer42_max        =   7.3274185845889E-06
(PID.TID 0000.0001) %MON trcstat_ptracer42_min        =   9.5459218922750E-37
(PID.TID 0000.0001) %MON trcstat_ptracer42_mean       =   2.1875325342227E-07
(PID.TID 0000.0001) %MON trcstat_ptracer42_sd         =   1.1459631600894E-06
(PID.TID 0000.0001) %MON trcstat_ptracer42_del2       =   0.0000000000000E+00
(PID.TID 0000.0001) %MON trcstat_ptracer43_max        =   7.3987769832538E-06
(PID.TID 0000.0001) %MON trcstat_ptracer43_min        =   9.5459218922750E-37
(PID.TID 0000.0001) %MON trcstat_ptracer43_mean       =   2.2061347100337E-07
(PID.TID 0000.0001) %MON trcstat_ptracer43_sd         =   1.1565937733214E-06
(PID.TID 0000.0001) %MON trcstat_ptracer43_del2       =   0.0000000000000E+00
(PID.TID 0000.0001) %MON trcstat_ptracer44_max        =   7.3154912431483E-06
(PID.TID 0000.0001) %MON trcstat_ptracer44_min        =   3.2877078143340E-39
(PID.TID 0000.0001) %MON trcstat_ptracer44_mean       =   2.1812816538473E-07
(PID.TID 0000.0001) %MON trcstat_ptracer44_sd         =   1.1436004534056E-06
(PID.TID 0000.0001) %MON trcstat_ptracer44_del2       =   0.0000000000000E+00
(PID.TID 0000.0001) %MON trcstat_ptracer45_max        =   7.3153367264066E-06
(PID.TID 0000.0001) %MON trcstat_ptracer45_min        =   9.5459218922750E-37
(PID.TID 0000.0001) %MON trcstat_ptracer45_mean       =   2.1812816178260E-07
(PID.TID 0000.0001) %MON trcstat_ptracer45_sd         =   1.1434544519164E-06
(PID.TID 0000.0001) %MON trcstat_ptracer45_del2       =   0.0000000000000E+00
(PID.TID 0000.0001) %MON trcstat_ptracer46_max        =   7.3154912431478E-06
(PID.TID 0000.0001) %MON trcstat_ptracer46_min        =   3.2877078143340E-39
(PID.TID 0000.0001) %MON trcstat_ptracer46_mean       =   2.1812816386556E-07
(PID.TID 0000.0001) %MON trcstat_ptracer46_sd         =   1.1436004536248E-06
(PID.TID 0000.0001) %MON trcstat_ptracer46_del2       =   0.0000000000000E+00
(PID.TID 0000.0001) %MON trcstat_ptracer47_max        =   7.3154912431477E-06
(PID.TID 0000.0001) %MON trcstat_ptracer47_min        =   3.2877078143340E-39
(PID.TID 0000.0001) %MON trcstat_ptracer47_mean       =   2.1812816178256E-07
(PID.TID 0000.0001) %MON trcstat_ptracer47_sd         =   1.1436004539492E-06
(PID.TID 0000.0001) %MON trcstat_ptracer47_del2       =   0.0000000000000E+00
(PID.TID 0000.0001) %MON trcstat_ptracer48_max        =   7.3154912431479E-06
(PID.TID 0000.0001) %MON trcstat_ptracer48_min        =   3.2877078143340E-39
(PID.TID 0000.0001) %MON trcstat_ptracer48_mean       =   2.1812816178257E-07
(PID.TID 0000.0001) %MON trcstat_ptracer48_sd         =   1.1436004539493E-06
(PID.TID 0000.0001) %MON trcstat_ptracer48_del2       =   0.0000000000000E+00
(PID.TID 0000.0001) %MON trcstat_ptracer49_max        =   7.3154912431479E-06
(PID.TID 0000.0001) %MON trcstat_ptracer49_min        =   3.2877078143340E-39
(PID.TID 0000.0001) %MON trcstat_ptracer49_mean       =   2.1812816178257E-07
(PID.TID 0000.0001) %MON trcstat_ptracer49_sd         =   1.1436004539493E-06
(PID.TID 0000.0001) %MON trcstat_ptracer49_del2       =   0.0000000000000E+00
(PID.TID 0000.0001) %MON trcstat_ptracer50_max        =   7.3936445525804E-06
(PID.TID 0000.0001) %MON trcstat_ptracer50_min        =   9.5459218922750E-37
(PID.TID 0000.0001) %MON trcstat_ptracer50_mean       =   2.2040228522986E-07
(PID.TID 0000.0001) %MON trcstat_ptracer50_sd         =   1.1556478478622E-06
(PID.TID 0000.0001) %MON trcstat_ptracer50_del2       =   0.0000000000000E+00
(PID.TID 0000.0001) %MON trcstat_ptracer51_max        =   7.3154912431502E-06
(PID.TID 0000.0001) %MON trcstat_ptracer51_min        =   3.2877078143340E-39
(PID.TID 0000.0001) %MON trcstat_ptracer51_mean       =   2.1812816178264E-07
(PID.TID 0000.0001) %MON trcstat_ptracer51_sd         =   1.1436004539496E-06
(PID.TID 0000.0001) %MON trcstat_ptracer51_del2       =   0.0000000000000E+00
(PID.TID 0000.0001) %MON trcstat_ptracer52_max        =   7.3960156167051E-06
(PID.TID 0000.0001) %MON trcstat_ptracer52_min        =   9.5459218922750E-37
(PID.TID 0000.0001) %MON trcstat_ptracer52_mean       =   2.2035803713025E-07
(PID.TID 0000.0001) %MON trcstat_ptracer52_sd         =   1.1558006925940E-06
(PID.TID 0000.0001) %MON trcstat_ptracer52_del2       =   0.0000000000000E+00
(PID.TID 0000.0001) %MON trcstat_ptracer53_max        =   7.3975391541213E-06
(PID.TID 0000.0001) %MON trcstat_ptracer53_min        =   3.2877078143340E-39
(PID.TID 0000.0001) %MON trcstat_ptracer53_mean       =   2.2047179927853E-07
(PID.TID 0000.0001) %MON trcstat_ptracer53_sd         =   1.1561237853645E-06
(PID.TID 0000.0001) %MON trcstat_ptracer53_del2       =   0.0000000000000E+00
(PID.TID 0000.0001) %MON trcstat_ptracer54_max        =   7.3588057174586E-06
(PID.TID 0000.0001) %MON trcstat_ptracer54_min        =   9.5459218922750E-37
(PID.TID 0000.0001) %MON trcstat_ptracer54_mean       =   2.1946060275985E-07
(PID.TID 0000.0001) %MON trcstat_ptracer54_sd         =   1.1500556511606E-06
(PID.TID 0000.0001) %MON trcstat_ptracer54_del2       =   0.0000000000000E+00
(PID.TID 0000.0001) %MON trcstat_ptracer55_max        =   7.3722393710754E-06
(PID.TID 0000.0001) %MON trcstat_ptracer55_min        =   3.2877078143340E-39
(PID.TID 0000.0001) %MON trcstat_ptracer55_mean       =   2.1960277454191E-07
(PID.TID 0000.0001) %MON trcstat_ptracer55_sd         =   1.1520011625520E-06
(PID.TID 0000.0001) %MON trcstat_ptracer55_del2       =   0.0000000000000E+00
(PID.TID 0000.0001) %MON trcstat_ptracer56_max        =   7.3154912431490E-06
(PID.TID 0000.0001) %MON trcstat_ptracer56_min        =   3.2877078143340E-39
(PID.TID 0000.0001) %MON trcstat_ptracer56_mean       =   2.1812816178260E-07
(PID.TID 0000.0001) %MON trcstat_ptracer56_sd         =   1.1436004539494E-06
(PID.TID 0000.0001) %MON trcstat_ptracer56_del2       =   0.0000000000000E+00
(PID.TID 0000.0001) %MON trcstat_ptracer57_max        =   7.3153367269740E-06
(PID.TID 0000.0001) %MON trcstat_ptracer57_min        =   9.5459218922750E-37
(PID.TID 0000.0001) %MON trcstat_ptracer57_mean       =   2.1812816179846E-07
(PID.TID 0000.0001) %MON trcstat_ptracer57_sd         =   1.1434544520018E-06
(PID.TID 0000.0001) %MON trcstat_ptracer57_del2       =   0.0000000000000E+00
(PID.TID 0000.0001) %MON trcstat_ptracer58_max        =   7.3154912431487E-06
(PID.TID 0000.0001) %MON trcstat_ptracer58_min        =   3.2877078143340E-39
(PID.TID 0000.0001) %MON trcstat_ptracer58_mean       =   2.1812816178260E-07
(PID.TID 0000.0001) %MON trcstat_ptracer58_sd         =   1.1436004539493E-06
(PID.TID 0000.0001) %MON trcstat_ptracer58_del2       =   0.0000000000000E+00
(PID.TID 0000.0001) %MON trcstat_ptracer59_max        =   7.3154912431502E-06
(PID.TID 0000.0001) %MON trcstat_ptracer59_min        =   3.2877078143340E-39
(PID.TID 0000.0001) %MON trcstat_ptracer59_mean       =   2.1812816178264E-07
(PID.TID 0000.0001) %MON trcstat_ptracer59_sd         =   1.1436004539496E-06
(PID.TID 0000.0001) %MON trcstat_ptracer59_del2       =   0.0000000000000E+00
(PID.TID 0000.0001) %MON trcstat_ptracer60_max        =   7.3154912431494E-06
(PID.TID 0000.0001) %MON trcstat_ptracer60_min        =   3.2877078143340E-39
(PID.TID 0000.0001) %MON trcstat_ptracer60_mean       =   2.1812816178262E-07
(PID.TID 0000.0001) %MON trcstat_ptracer60_sd         =   1.1436004539495E-06
(PID.TID 0000.0001) %MON trcstat_ptracer60_del2       =   0.0000000000000E+00
(PID.TID 0000.0001) %MON trcstat_ptracer61_max        =   7.3153367269750E-06
(PID.TID 0000.0001) %MON trcstat_ptracer61_min        =   9.5459218922750E-37
(PID.TID 0000.0001) %MON trcstat_ptracer61_mean       =   2.1813020157769E-07
(PID.TID 0000.0001) %MON trcstat_ptracer61_sd         =   1.1434541399400E-06
(PID.TID 0000.0001) %MON trcstat_ptracer61_del2       =   0.0000000000000E+00
(PID.TID 0000.0001) %MON trcstat_ptracer62_max        =   7.3154912431484E-06
(PID.TID 0000.0001) %MON trcstat_ptracer62_min        =   3.2877078143340E-39
(PID.TID 0000.0001) %MON trcstat_ptracer62_mean       =   2.1813142281248E-07
(PID.TID 0000.0001) %MON trcstat_ptracer62_sd         =   1.1435999945166E-06
(PID.TID 0000.0001) %MON trcstat_ptracer62_del2       =   0.0000000000000E+00
(PID.TID 0000.0001) %MON trcstat_ptracer63_max        =   7.3153367264071E-06
(PID.TID 0000.0001) %MON trcstat_ptracer63_min        =   9.5459218922750E-37
(PID.TID 0000.0001) %MON trcstat_ptracer63_mean       =   2.1813233006839E-07
(PID.TID 0000.0001) %MON trcstat_ptracer63_sd         =   1.1434538446792E-06
(PID.TID 0000.0001) %MON trcstat_ptracer63_del2       =   0.0000000000000E+00
(PID.TID 0000.0001) %MON trcstat_ptracer64_max        =   7.3154912431502E-06
(PID.TID 0000.0001) %MON trcstat_ptracer64_min        =   3.2877078143340E-39
(PID.TID 0000.0001) %MON trcstat_ptracer64_mean       =   2.1820681596597E-07
(PID.TID 0000.0001) %MON trcstat_ptracer64_sd         =   1.1436604791685E-06
(PID.TID 0000.0001) %MON trcstat_ptracer64_del2       =   0.0000000000000E+00
(PID.TID 0000.0001) %MON trcstat_ptracer65_max        =   7.3153367264066E-06
(PID.TID 0000.0001) %MON trcstat_ptracer65_min        =   9.5459218922750E-37
(PID.TID 0000.0001) %MON trcstat_ptracer65_mean       =   2.1812816179021E-07
(PID.TID 0000.0001) %MON trcstat_ptracer65_sd         =   1.1434544519149E-06
(PID.TID 0000.0001) %MON trcstat_ptracer65_del2       =   0.0000000000000E+00
(PID.TID 0000.0001) %MON trcstat_ptracer66_max        =   7.3486650997539E-06
(PID.TID 0000.0001) %MON trcstat_ptracer66_min        =   3.2877078143340E-39
(PID.TID 0000.0001) %MON trcstat_ptracer66_mean       =   2.1890529786703E-07
(PID.TID 0000.0001) %MON trcstat_ptracer66_sd         =   1.1482637484606E-06
(PID.TID 0000.0001) %MON trcstat_ptracer66_del2       =   0.0000000000000E+00
(PID.TID 0000.0001) %MON trcstat_ptracer67_max        =   7.3969523039938E-06
(PID.TID 0000.0001) %MON trcstat_ptracer67_min        =   9.5459218922750E-37
(PID.TID 0000.0001) %MON trcstat_ptracer67_mean       =   2.2046718637561E-07
(PID.TID 0000.0001) %MON trcstat_ptracer67_sd         =   1.1561856353808E-06
(PID.TID 0000.0001) %MON trcstat_ptracer67_del2       =   0.0000000000000E+00
(PID.TID 0000.0001) %MON trcstat_ptracer68_max        =   7.3153367264075E-06
(PID.TID 0000.0001) %MON trcstat_ptracer68_min        =   9.5459218922750E-37
(PID.TID 0000.0001) %MON trcstat_ptracer68_mean       =   2.1812816178263E-07
(PID.TID 0000.0001) %MON trcstat_ptracer68_sd         =   1.1434544519165E-06
(PID.TID 0000.0001) %MON trcstat_ptracer68_del2       =   0.0000000000000E+00
(PID.TID 0000.0001) %MON trcstat_ptracer69_max        =   7.3153367264073E-06
(PID.TID 0000.0001) %MON trcstat_ptracer69_min        =   9.5459218922750E-37
(PID.TID 0000.0001) %MON trcstat_ptracer69_mean       =   2.1812929740394E-07
(PID.TID 0000.0001) %MON trcstat_ptracer69_sd         =   1.1434542669540E-06
(PID.TID 0000.0001) %MON trcstat_ptracer69_del2       =   0.0000000000000E+00
(PID.TID 0000.0001) %MON trcstat_ptracer70_max        =   7.3153367264070E-06
(PID.TID 0000.0001) %MON trcstat_ptracer70_min        =   9.5459218922750E-37
(PID.TID 0000.0001) %MON trcstat_ptracer70_mean       =   2.1812816178262E-07
(PID.TID 0000.0001) %MON trcstat_ptracer70_sd         =   1.1434544519165E-06
(PID.TID 0000.0001) %MON trcstat_ptracer70_del2       =   0.0000000000000E+00
(PID.TID 0000.0001) %MON trcstat_ptracer71_max        =   7.3638396220373E-06
(PID.TID 0000.0001) %MON trcstat_ptracer71_min        =   3.2877078143340E-39
(PID.TID 0000.0001) %MON trcstat_ptracer71_mean       =   2.1962499102373E-07
(PID.TID 0000.0001) %MON trcstat_ptracer71_sd         =   1.1512370312190E-06
(PID.TID 0000.0001) %MON trcstat_ptracer71_del2       =   0.0000000000000E+00
(PID.TID 0000.0001) %MON trcstat_ptracer72_max        =   7.3154912431505E-06
(PID.TID 0000.0001) %MON trcstat_ptracer72_min        =   3.2877078143340E-39
(PID.TID 0000.0001) %MON trcstat_ptracer72_mean       =   2.1812816178265E-07
(PID.TID 0000.0001) %MON trcstat_ptracer72_sd         =   1.1436004539496E-06
(PID.TID 0000.0001) %MON trcstat_ptracer72_del2       =   0.0000000000000E+00
(PID.TID 0000.0001) %MON trcstat_ptracer73_max        =   7.3153367269749E-06
(PID.TID 0000.0001) %MON trcstat_ptracer73_min        =   9.5459218922750E-37
(PID.TID 0000.0001) %MON trcstat_ptracer73_mean       =   2.1812874813845E-07
(PID.TID 0000.0001) %MON trcstat_ptracer73_sd         =   1.1434543548942E-06
(PID.TID 0000.0001) %MON trcstat_ptracer73_del2       =   0.0000000000000E+00
(PID.TID 0000.0001) %MON trcstat_ptracer74_max        =   7.3153367269745E-06
(PID.TID 0000.0001) %MON trcstat_ptracer74_min        =   9.5459218922750E-37
(PID.TID 0000.0001) %MON trcstat_ptracer74_mean       =   2.1813297376321E-07
(PID.TID 0000.0001) %MON trcstat_ptracer74_sd         =   1.1434537656926E-06
(PID.TID 0000.0001) %MON trcstat_ptracer74_del2       =   0.0000000000000E+00
(PID.TID 0000.0001) %MON trcstat_ptracer75_max        =   7.3153367264066E-06
(PID.TID 0000.0001) %MON trcstat_ptracer75_min        =   9.5459218922750E-37
(PID.TID 0000.0001) %MON trcstat_ptracer75_mean       =   2.1812816178260E-07
(PID.TID 0000.0001) %MON trcstat_ptracer75_sd         =   1.1434544519164E-06
(PID.TID 0000.0001) %MON trcstat_ptracer75_del2       =   0.0000000000000E+00
(PID.TID 0000.0001) %MON trcstat_ptracer76_max        =   7.3989461467888E-06
(PID.TID 0000.0001) %MON trcstat_ptracer76_min        =   9.5459218922750E-37
(PID.TID 0000.0001) %MON trcstat_ptracer76_mean       =   2.2061834373389E-07
(PID.TID 0000.0001) %MON trcstat_ptracer76_sd         =   1.1566470351070E-06
(PID.TID 0000.0001) %MON trcstat_ptracer76_del2       =   0.0000000000000E+00
(PID.TID 0000.0001) %MON trcstat_ptracer77_max        =   7.3153367269750E-06
(PID.TID 0000.0001) %MON trcstat_ptracer77_min        =   9.5459218922750E-37
(PID.TID 0000.0001) %MON trcstat_ptracer77_mean       =   2.1812816179849E-07
(PID.TID 0000.0001) %MON trcstat_ptracer77_sd         =   1.1434544520019E-06
(PID.TID 0000.0001) %MON trcstat_ptracer77_del2       =   0.0000000000000E+00
(PID.TID 0000.0001) %MON trcstat_ptracer78_max        =   7.3966039766637E-06
(PID.TID 0000.0001) %MON trcstat_ptracer78_min        =   9.5459218922750E-37
(PID.TID 0000.0001) %MON trcstat_ptracer78_mean       =   2.2029248847155E-07
(PID.TID 0000.0001) %MON trcstat_ptracer78_sd         =   1.1556813813397E-06
(PID.TID 0000.0001) %MON trcstat_ptracer78_del2       =   0.0000000000000E+00
(PID.TID 0000.0001) %MON trcstat_ptracer79_max        =   7.3462722867931E-06
(PID.TID 0000.0001) %MON trcstat_ptracer79_min        =   9.5459218922750E-37
(PID.TID 0000.0001) %MON trcstat_ptracer79_mean       =   2.1923353947202E-07
(PID.TID 0000.0001) %MON trcstat_ptracer79_sd         =   1.1485586972423E-06
(PID.TID 0000.0001) %MON trcstat_ptracer79_del2       =   0.0000000000000E+00
(PID.TID 0000.0001) %MON trcstat_ptracer80_max        =   7.3153367264078E-06
(PID.TID 0000.0001) %MON trcstat_ptracer80_min        =   9.5459218922750E-37
(PID.TID 0000.0001) %MON trcstat_ptracer80_mean       =   2.1820123644283E-07
(PID.TID 0000.0001) %MON trcstat_ptracer80_sd         =   1.1434906136989E-06
(PID.TID 0000.0001) %MON trcstat_ptracer80_del2       =   0.0000000000000E+00
(PID.TID 0000.0001) %MON trcstat_ptracer81_max        =   7.3295297725814E-06
(PID.TID 0000.0001) %MON trcstat_ptracer81_min        =   9.5459218922750E-37
(PID.TID 0000.0001) %MON trcstat_ptracer81_mean       =   2.1877034519136E-07
(PID.TID 0000.0001) %MON trcstat_ptracer81_sd         =   1.1461573890218E-06
(PID.TID 0000.0001) %MON trcstat_ptracer81_del2       =   0.0000000000000E+00
(PID.TID 0000.0001) %MON trcstat_ptracer82_max        =   7.3153367264072E-06
(PID.TID 0000.0001) %MON trcstat_ptracer82_min        =   9.5459218922750E-37
(PID.TID 0000.0001) %MON trcstat_ptracer82_mean       =   2.1812816178262E-07
(PID.TID 0000.0001) %MON trcstat_ptracer82_sd         =   1.1434544519165E-06
(PID.TID 0000.0001) %MON trcstat_ptracer82_del2       =   0.0000000000000E+00
(PID.TID 0000.0001) %MON trcstat_ptracer83_max        =   7.3153367264065E-06
(PID.TID 0000.0001) %MON trcstat_ptracer83_min        =   9.5459218922750E-37
(PID.TID 0000.0001) %MON trcstat_ptracer83_mean       =   2.1812940777298E-07
(PID.TID 0000.0001) %MON trcstat_ptracer83_sd         =   1.1434542494268E-06
(PID.TID 0000.0001) %MON trcstat_ptracer83_del2       =   0.0000000000000E+00
(PID.TID 0000.0001) %MON trcstat_ptracer84_max        =   7.3675819174991E-06
(PID.TID 0000.0001) %MON trcstat_ptracer84_min        =   9.5459218922750E-37
(PID.TID 0000.0001) %MON trcstat_ptracer84_mean       =   2.1966252280218E-07
(PID.TID 0000.0001) %MON trcstat_ptracer84_sd         =   1.1512645318097E-06
(PID.TID 0000.0001) %MON trcstat_ptracer84_del2       =   0.0000000000000E+00
(PID.TID 0000.0001) %MON trcstat_ptracer85_max        =   7.3154912431483E-06
(PID.TID 0000.0001) %MON trcstat_ptracer85_min        =   3.2877078143340E-39
(PID.TID 0000.0001) %MON trcstat_ptracer85_mean       =   2.1812816178259E-07
(PID.TID 0000.0001) %MON trcstat_ptracer85_sd         =   1.1436004539493E-06
(PID.TID 0000.0001) %MON trcstat_ptracer85_del2       =   0.0000000000000E+00
(PID.TID 0000.0001) %MON trcstat_ptracer86_max        =   7.3153367269741E-06
(PID.TID 0000.0001) %MON trcstat_ptracer86_min        =   9.5459218922750E-37
(PID.TID 0000.0001) %MON trcstat_ptracer86_mean       =   2.1819126673621E-07
(PID.TID 0000.0001) %MON trcstat_ptracer86_sd         =   1.1434782829580E-06
(PID.TID 0000.0001) %MON trcstat_ptracer86_del2       =   0.0000000000000E+00
(PID.TID 0000.0001) %MON trcstat_ptracer87_max        =   7.3154912431478E-06
(PID.TID 0000.0001) %MON trcstat_ptracer87_min        =   3.2877078143340E-39
(PID.TID 0000.0001) %MON trcstat_ptracer87_mean       =   2.1812816178257E-07
(PID.TID 0000.0001) %MON trcstat_ptracer87_sd         =   1.1436004539492E-06
(PID.TID 0000.0001) %MON trcstat_ptracer87_del2       =   0.0000000000000E+00
(PID.TID 0000.0001) %MON trcstat_ptracer88_max        =   7.3153367264070E-06
(PID.TID 0000.0001) %MON trcstat_ptracer88_min        =   9.5459218922750E-37
(PID.TID 0000.0001) %MON trcstat_ptracer88_mean       =   2.1812816178262E-07
(PID.TID 0000.0001) %MON trcstat_ptracer88_sd         =   1.1434544519165E-06
(PID.TID 0000.0001) %MON trcstat_ptracer88_del2       =   0.0000000000000E+00
(PID.TID 0000.0001) %MON trcstat_ptracer89_max        =   7.3375882682418E-06
(PID.TID 0000.0001) %MON trcstat_ptracer89_min        =   9.5459218922750E-37
(PID.TID 0000.0001) %MON trcstat_ptracer89_mean       =   2.1904320608038E-07
(PID.TID 0000.0001) %MON trcstat_ptracer89_sd         =   1.1474552248086E-06
(PID.TID 0000.0001) %MON trcstat_ptracer89_del2       =   0.0000000000000E+00
(PID.TID 0000.0001) %MON trcstat_ptracer90_max        =   7.3776498805395E-06
(PID.TID 0000.0001) %MON trcstat_ptracer90_min        =   3.2877078143340E-39
(PID.TID 0000.0001) %MON trcstat_ptracer90_mean       =   2.1993980400102E-07
(PID.TID 0000.0001) %MON trcstat_ptracer90_sd         =   1.1533802360191E-06
(PID.TID 0000.0001) %MON trcstat_ptracer90_del2       =   0.0000000000000E+00
(PID.TID 0000.0001) %MON trcstat_ptracer91_max        =   7.3154912431483E-06
(PID.TID 0000.0001) %MON trcstat_ptracer91_min        =   3.2877078143340E-39
(PID.TID 0000.0001) %MON trcstat_ptracer91_mean       =   2.1812816178259E-07
(PID.TID 0000.0001) %MON trcstat_ptracer91_sd         =   1.1436004539493E-06
(PID.TID 0000.0001) %MON trcstat_ptracer91_del2       =   0.0000000000000E+00
(PID.TID 0000.0001) %MON trcstat_ptracer92_max        =   7.3154912431480E-06
(PID.TID 0000.0001) %MON trcstat_ptracer92_min        =   3.2877078143340E-39
(PID.TID 0000.0001) %MON trcstat_ptracer92_mean       =   2.1812820819792E-07
(PID.TID 0000.0001) %MON trcstat_ptracer92_sd         =   1.1436004492058E-06
(PID.TID 0000.0001) %MON trcstat_ptracer92_del2       =   0.0000000000000E+00
(PID.TID 0000.0001) %MON trcstat_ptracer93_max        =   7.3153367269750E-06
(PID.TID 0000.0001) %MON trcstat_ptracer93_min        =   9.5459218922750E-37
(PID.TID 0000.0001) %MON trcstat_ptracer93_mean       =   2.1812827391144E-07
(PID.TID 0000.0001) %MON trcstat_ptracer93_sd         =   1.1434544312066E-06
(PID.TID 0000.0001) %MON trcstat_ptracer93_del2       =   0.0000000000000E+00
(PID.TID 0000.0001) %MON trcstat_ptracer94_max        =   7.3154912431482E-06
(PID.TID 0000.0001) %MON trcstat_ptracer94_min        =   3.2877078143340E-39
(PID.TID 0000.0001) %MON trcstat_ptracer94_mean       =   2.1812816178258E-07
(PID.TID 0000.0001) %MON trcstat_ptracer94_sd         =   1.1436004539493E-06
(PID.TID 0000.0001) %MON trcstat_ptracer94_del2       =   0.0000000000000E+00
(PID.TID 0000.0001) %MON trcstat_ptracer95_max        =   7.3313616111360E-06
(PID.TID 0000.0001) %MON trcstat_ptracer95_min        =   9.5459218922750E-37
(PID.TID 0000.0001) %MON trcstat_ptracer95_mean       =   2.1885483819560E-07
(PID.TID 0000.0001) %MON trcstat_ptracer95_sd         =   1.1465159646059E-06
(PID.TID 0000.0001) %MON trcstat_ptracer95_del2       =   0.0000000000000E+00
(PID.TID 0000.0001) %MON trcstat_ptracer96_max        =   7.3153367269741E-06
(PID.TID 0000.0001) %MON trcstat_ptracer96_min        =   9.5459218922750E-37
(PID.TID 0000.0001) %MON trcstat_ptracer96_mean       =   2.1812816179846E-07
(PID.TID 0000.0001) %MON trcstat_ptracer96_sd         =   1.1434544520018E-06
(PID.TID 0000.0001) %MON trcstat_ptracer96_del2       =   0.0000000000000E+00
(PID.TID 0000.0001) %MON trcstat_ptracer97_max        =   7.3937406743797E-06
(PID.TID 0000.0001) %MON trcstat_ptracer97_min        =   9.5459218922750E-37
(PID.TID 0000.0001) %MON trcstat_ptracer97_mean       =   2.2042612204704E-07
(PID.TID 0000.0001) %MON trcstat_ptracer97_sd         =   1.1556858170126E-06
(PID.TID 0000.0001) %MON trcstat_ptracer97_del2       =   0.0000000000000E+00
(PID.TID 0000.0001) %MON trcstat_ptracer98_max        =   7.3155164362944E-06
(PID.TID 0000.0001) %MON trcstat_ptracer98_min        =   9.5459218922750E-37
(PID.TID 0000.0001) %MON trcstat_ptracer98_mean       =   2.1842617216303E-07
(PID.TID 0000.0001) %MON trcstat_ptracer98_sd         =   1.1443789471294E-06
(PID.TID 0000.0001) %MON trcstat_ptracer98_del2       =   0.0000000000000E+00
(PID.TID 0000.0001) %MON trcstat_ptracer99_max        =   7.3647087564718E-06
(PID.TID 0000.0001) %MON trcstat_ptracer99_min        =   3.2877078143340E-39
(PID.TID 0000.0001) %MON trcstat_ptracer99_mean       =   2.1948118410361E-07
(PID.TID 0000.0001) %MON trcstat_ptracer99_sd         =   1.1512813422383E-06
(PID.TID 0000.0001) %MON trcstat_ptracer99_del2       =   0.0000000000000E+00
(PID.TID 0000.0001) // =======================================================
(PID.TID 0000.0001) // End MONITOR ptracers field statistics
(PID.TID 0000.0001) // =======================================================
time,SST,SSS,fu,fv,Q,E-P,i0,i1,a,b =   3.6000E+03  2.5678E+01  0.0000E+00  0.0000E+00  0.0000E+00  0.0000E+00  0.0000E+00    12     1  5.0139E-01  4.9861E-01
time,fu0,fu1,fu =   3.6000E+03  0.0000E+00  0.0000E+00  0.0000E+00  5.013888888888889E-01  4.986111111111111E-01
(PID.TID 0000.0001) // =======================================================
(PID.TID 0000.0001) // Begin MONITOR dynamic field statistics
(PID.TID 0000.0001) // =======================================================
(PID.TID 0000.0001) %MON time_tsnumber                =                     2
(PID.TID 0000.0001) %MON time_secondsf                =   7.2000000000000E+03
(PID.TID 0000.0001) %MON dynstat_eta_max              =   0.0000000000000E+00
(PID.TID 0000.0001) %MON dynstat_eta_min              =   0.0000000000000E+00
(PID.TID 0000.0001) %MON dynstat_eta_mean             =   0.0000000000000E+00
(PID.TID 0000.0001) %MON dynstat_eta_sd               =   0.0000000000000E+00
(PID.TID 0000.0001) %MON dynstat_eta_del2             =   0.0000000000000E+00
(PID.TID 0000.0001) %MON dynstat_uvel_max             =   0.0000000000000E+00
(PID.TID 0000.0001) %MON dynstat_uvel_min             =   0.0000000000000E+00
(PID.TID 0000.0001) %MON dynstat_uvel_mean            =   0.0000000000000E+00
(PID.TID 0000.0001) %MON dynstat_uvel_sd              =   0.0000000000000E+00
(PID.TID 0000.0001) %MON dynstat_uvel_del2            =   0.0000000000000E+00
(PID.TID 0000.0001) %MON dynstat_vvel_max             =   0.0000000000000E+00
(PID.TID 0000.0001) %MON dynstat_vvel_min             =   0.0000000000000E+00
(PID.TID 0000.0001) %MON dynstat_vvel_mean            =   0.0000000000000E+00
(PID.TID 0000.0001) %MON dynstat_vvel_sd              =   0.0000000000000E+00
(PID.TID 0000.0001) %MON dynstat_vvel_del2            =   0.0000000000000E+00
(PID.TID 0000.0001) %MON dynstat_wvel_max             =   0.0000000000000E+00
(PID.TID 0000.0001) %MON dynstat_wvel_min             =   0.0000000000000E+00
(PID.TID 0000.0001) %MON dynstat_wvel_mean            =   0.0000000000000E+00
(PID.TID 0000.0001) %MON dynstat_wvel_sd              =   0.0000000000000E+00
(PID.TID 0000.0001) %MON dynstat_wvel_del2            =   0.0000000000000E+00
(PID.TID 0000.0001) %MON dynstat_theta_max            =   2.6326133202983E+01
(PID.TID 0000.0001) %MON dynstat_theta_min            =   2.6737005429265E+00
(PID.TID 0000.0001) %MON dynstat_theta_mean           =   5.4735411526788E+00
(PID.TID 0000.0001) %MON dynstat_theta_sd             =   5.1969661225680E+00
(PID.TID 0000.0001) %MON dynstat_theta_del2           =   0.0000000000000E+00
(PID.TID 0000.0001) %MON dynstat_salt_max             =   3.5000000000000E+01
(PID.TID 0000.0001) %MON dynstat_salt_min             =   3.5000000000000E+01
(PID.TID 0000.0001) %MON dynstat_salt_mean            =   3.5000000000000E+01
(PID.TID 0000.0001) %MON dynstat_salt_sd              =   7.1054273576010E-15
(PID.TID 0000.0001) %MON dynstat_salt_del2            =   0.0000000000000E+00
(PID.TID 0000.0001) %MON dynstat_sst_max              =   2.6326133202983E+01
(PID.TID 0000.0001) %MON dynstat_sst_min              =   2.6326133202983E+01
(PID.TID 0000.0001) %MON dynstat_sst_mean             =   2.6326133202983E+01
(PID.TID 0000.0001) %MON dynstat_sst_sd               =   0.0000000000000E+00
(PID.TID 0000.0001) %MON dynstat_sst_del2             =   0.0000000000000E+00
(PID.TID 0000.0001) %MON dynstat_sss_max              =   3.5000000000000E+01
(PID.TID 0000.0001) %MON dynstat_sss_min              =   3.5000000000000E+01
(PID.TID 0000.0001) %MON dynstat_sss_mean             =   3.5000000000000E+01
(PID.TID 0000.0001) %MON dynstat_sss_sd               =   0.0000000000000E+00
(PID.TID 0000.0001) %MON dynstat_sss_del2             =   0.0000000000000E+00
(PID.TID 0000.0001) %MON forcing_qnet_max             =   0.0000000000000E+00
(PID.TID 0000.0001) %MON forcing_qnet_min             =   0.0000000000000E+00
(PID.TID 0000.0001) %MON forcing_qnet_mean            =   0.0000000000000E+00
(PID.TID 0000.0001) %MON forcing_qnet_sd              =   0.0000000000000E+00
(PID.TID 0000.0001) %MON forcing_qnet_del2            =   0.0000000000000E+00
(PID.TID 0000.0001) %MON forcing_qsw_max              =   0.0000000000000E+00
(PID.TID 0000.0001) %MON forcing_qsw_min              =   0.0000000000000E+00
(PID.TID 0000.0001) %MON forcing_qsw_mean             =   0.0000000000000E+00
(PID.TID 0000.0001) %MON forcing_qsw_sd               =   0.0000000000000E+00
(PID.TID 0000.0001) %MON forcing_qsw_del2             =   0.0000000000000E+00
(PID.TID 0000.0001) %MON forcing_empmr_max            =   0.0000000000000E+00
(PID.TID 0000.0001) %MON forcing_empmr_min            =   0.0000000000000E+00
(PID.TID 0000.0001) %MON forcing_empmr_mean           =   0.0000000000000E+00
(PID.TID 0000.0001) %MON forcing_empmr_sd             =   0.0000000000000E+00
(PID.TID 0000.0001) %MON forcing_empmr_del2           =   0.0000000000000E+00
(PID.TID 0000.0001) %MON forcing_fu_max               =   0.0000000000000E+00
(PID.TID 0000.0001) %MON forcing_fu_min               =   0.0000000000000E+00
(PID.TID 0000.0001) %MON forcing_fu_mean              =   0.0000000000000E+00
(PID.TID 0000.0001) %MON forcing_fu_sd                =   0.0000000000000E+00
(PID.TID 0000.0001) %MON forcing_fu_del2              =   0.0000000000000E+00
(PID.TID 0000.0001) %MON forcing_fv_max               =   0.0000000000000E+00
(PID.TID 0000.0001) %MON forcing_fv_min               =   0.0000000000000E+00
(PID.TID 0000.0001) %MON forcing_fv_mean              =   0.0000000000000E+00
(PID.TID 0000.0001) %MON forcing_fv_sd                =   0.0000000000000E+00
(PID.TID 0000.0001) %MON forcing_fv_del2              =   0.0000000000000E+00
(PID.TID 0000.0001) %MON advcfl_uvel_max              =   0.0000000000000E+00
(PID.TID 0000.0001) %MON advcfl_vvel_max              =   0.0000000000000E+00
(PID.TID 0000.0001) %MON advcfl_wvel_max              =   0.0000000000000E+00
(PID.TID 0000.0001) %MON advcfl_W_hf_max              =   0.0000000000000E+00
(PID.TID 0000.0001) %MON pe_b_mean                    =   0.0000000000000E+00
(PID.TID 0000.0001) %MON ke_max                       =   0.0000000000000E+00
(PID.TID 0000.0001) %MON ke_mean                      =   0.0000000000000E+00
(PID.TID 0000.0001) %MON ke_vol                       =   4.1199767883485E+13
(PID.TID 0000.0001) %MON vort_r_min                   =   0.0000000000000E+00
(PID.TID 0000.0001) %MON vort_r_max                   =   0.0000000000000E+00
(PID.TID 0000.0001) %MON vort_a_mean                  =  -4.5067801836625E-05
(PID.TID 0000.0001) %MON vort_a_sd                    =  -4.1359030627651E-25
(PID.TID 0000.0001) %MON vort_p_mean                  =  -4.5067801836625E-05
(PID.TID 0000.0001) %MON vort_p_sd                    =   0.0000000000000E+00
(PID.TID 0000.0001) %MON surfExpan_theta_mean         =   0.0000000000000E+00
(PID.TID 0000.0001) %MON surfExpan_salt_mean          =   0.0000000000000E+00
(PID.TID 0000.0001) // =======================================================
(PID.TID 0000.0001) // End MONITOR dynamic field statistics
(PID.TID 0000.0001) // =======================================================
(PID.TID 0000.0001) // =======================================================
(PID.TID 0000.0001) // Begin MONITOR ptracer field statistics
(PID.TID 0000.0001) // =======================================================
(PID.TID 0000.0001) %MON trcstat_ptracer01_max        =   2.2436998357850E+00
(PID.TID 0000.0001) %MON trcstat_ptracer01_min        =   2.1025338206825E-01
(PID.TID 0000.0001) %MON trcstat_ptracer01_mean       =   1.5821339652893E+00
(PID.TID 0000.0001) %MON trcstat_ptracer01_sd         =   4.6735003966926E-01
(PID.TID 0000.0001) %MON trcstat_ptracer01_del2       =   0.0000000000000E+00
(PID.TID 0000.0001) %MON trcstat_ptracer02_max        =   3.3903496291100E+01
(PID.TID 0000.0001) %MON trcstat_ptracer02_min        =   4.6391067149268E-02
(PID.TID 0000.0001) %MON trcstat_ptracer02_mean       =   2.3502390688298E+01
(PID.TID 0000.0001) %MON trcstat_ptracer02_sd         =   7.8161996401115E+00
(PID.TID 0000.0001) %MON trcstat_ptracer02_del2       =   0.0000000000000E+00
(PID.TID 0000.0001) %MON trcstat_ptracer03_max        =   1.3002602242696E-03
(PID.TID 0000.0001) %MON trcstat_ptracer03_min        =   1.2999707842917E-03
(PID.TID 0000.0001) %MON trcstat_ptracer03_mean       =   1.2999718262059E-03
(PID.TID 0000.0001) %MON trcstat_ptracer03_sd         =   1.5455037268175E-08
(PID.TID 0000.0001) %MON trcstat_ptracer03_del2       =   0.0000000000000E+00
(PID.TID 0000.0001) %MON trcstat_ptracer04_max        =   3.9387401115092E+01
(PID.TID 0000.0001) %MON trcstat_ptracer04_min        =   1.2247980380101E+00
(PID.TID 0000.0001) %MON trcstat_ptracer04_mean       =   2.9621889959833E+01
(PID.TID 0000.0001) %MON trcstat_ptracer04_sd         =   1.1270585097313E+01
(PID.TID 0000.0001) %MON trcstat_ptracer04_del2       =   0.0000000000000E+00
(PID.TID 0000.0001) %MON trcstat_ptracer05_max        =   5.1121440522891E-03
(PID.TID 0000.0001) %MON trcstat_ptracer05_min        =   9.0074932449930E-35
(PID.TID 0000.0001) %MON trcstat_ptracer05_mean       =   2.1464719432821E-04
(PID.TID 0000.0001) %MON trcstat_ptracer05_sd         =   9.2409852250579E-04
(PID.TID 0000.0001) %MON trcstat_ptracer05_del2       =   0.0000000000000E+00
(PID.TID 0000.0001) %MON trcstat_ptracer06_max        =   8.1794304836626E-02
(PID.TID 0000.0001) %MON trcstat_ptracer06_min        =   1.4411989191989E-33
(PID.TID 0000.0001) %MON trcstat_ptracer06_mean       =   3.4343551092514E-03
(PID.TID 0000.0001) %MON trcstat_ptracer06_sd         =   1.4785576360093E-02
(PID.TID 0000.0001) %MON trcstat_ptracer06_del2       =   0.0000000000000E+00
(PID.TID 0000.0001) %MON trcstat_ptracer07_max        =   5.1121436930251E-06
(PID.TID 0000.0001) %MON trcstat_ptracer07_min        =   9.0074797085129E-38
(PID.TID 0000.0001) %MON trcstat_ptracer07_mean       =   2.1464719463446E-07
(PID.TID 0000.0001) %MON trcstat_ptracer07_sd         =   9.2409852216405E-07
(PID.TID 0000.0001) %MON trcstat_ptracer07_del2       =   0.0000000000000E+00
(PID.TID 0000.0001) %MON trcstat_ptracer08_max        =   1.0332527970370E-09
(PID.TID 0000.0001) %MON trcstat_ptracer08_min        =   1.1524772983298E-36
(PID.TID 0000.0001) %MON trcstat_ptracer08_mean       =   1.3664136138072E-10
(PID.TID 0000.0001) %MON trcstat_ptracer08_sd         =   2.4992627069846E-10
(PID.TID 0000.0001) %MON trcstat_ptracer08_del2       =   0.0000000000000E+00
(PID.TID 0000.0001) %MON trcstat_ptracer09_max        =   1.6532044752593E-08
(PID.TID 0000.0001) %MON trcstat_ptracer09_min        =   1.8439636773276E-35
(PID.TID 0000.0001) %MON trcstat_ptracer09_mean       =   2.1862617820915E-09
(PID.TID 0000.0001) %MON trcstat_ptracer09_sd         =   3.9988203311754E-09
(PID.TID 0000.0001) %MON trcstat_ptracer09_del2       =   0.0000000000000E+00
(PID.TID 0000.0001) %MON trcstat_ptracer10_max        =   1.0332527615783E-12
(PID.TID 0000.0001) %MON trcstat_ptracer10_min        =   1.1524772155898E-39
(PID.TID 0000.0001) %MON trcstat_ptracer10_mean       =   1.3664135236218E-13
(PID.TID 0000.0001) %MON trcstat_ptracer10_sd         =   2.4992625644388E-13
(PID.TID 0000.0001) %MON trcstat_ptracer10_del2       =   0.0000000000000E+00
(PID.TID 0000.0001) %MON trcstat_ptracer11_max        =   4.2425781638200E-09
(PID.TID 0000.0001) %MON trcstat_ptracer11_min        =   6.7894135940393E-36
(PID.TID 0000.0001) %MON trcstat_ptracer11_mean       =   5.1428167025160E-10
(PID.TID 0000.0001) %MON trcstat_ptracer11_sd         =   1.0349936080693E-09
(PID.TID 0000.0001) %MON trcstat_ptracer11_del2       =   0.0000000000000E+00
(PID.TID 0000.0001) %MON trcstat_ptracer12_max        =   1.0332643654373E-09
(PID.TID 0000.0001) %MON trcstat_ptracer12_min        =   1.1524772983299E-36
(PID.TID 0000.0001) %MON trcstat_ptracer12_mean       =   1.3664169014271E-10
(PID.TID 0000.0001) %MON trcstat_ptracer12_sd         =   2.4992737292282E-10
(PID.TID 0000.0001) %MON trcstat_ptracer12_del2       =   0.0000000000000E+00
(PID.TID 0000.0001) %MON trcstat_ptracer13_max        =   1.6532229846996E-08
(PID.TID 0000.0001) %MON trcstat_ptracer13_min        =   1.8439636773278E-35
(PID.TID 0000.0001) %MON trcstat_ptracer13_mean       =   2.1862670422833E-09
(PID.TID 0000.0001) %MON trcstat_ptracer13_sd         =   3.9988379667651E-09
(PID.TID 0000.0001) %MON trcstat_ptracer13_del2       =   0.0000000000000E+00
(PID.TID 0000.0001) %MON trcstat_ptracer14_max        =   1.0332643299785E-12
(PID.TID 0000.0001) %MON trcstat_ptracer14_min        =   1.1524772155899E-39
(PID.TID 0000.0001) %MON trcstat_ptracer14_mean       =   1.3664168112417E-13
(PID.TID 0000.0001) %MON trcstat_ptracer14_sd         =   2.4992735866830E-13
(PID.TID 0000.0001) %MON trcstat_ptracer14_del2       =   0.0000000000000E+00
(PID.TID 0000.0001) %MON trcstat_ptracer15_max        =   4.2425781640533E-09
(PID.TID 0000.0001) %MON trcstat_ptracer15_min        =   6.7894135940418E-36
(PID.TID 0000.0001) %MON trcstat_ptracer15_mean       =   5.1429027160718E-10
(PID.TID 0000.0001) %MON trcstat_ptracer15_sd         =   1.0349893353870E-09
(PID.TID 0000.0001) %MON trcstat_ptracer15_del2       =   0.0000000000000E+00
(PID.TID 0000.0001) %MON trcstat_ptracer16_max        =   2.7199710269509E-04
(PID.TID 0000.0001) %MON trcstat_ptracer16_min        =   1.1748670965339E-06
(PID.TID 0000.0001) %MON trcstat_ptracer16_mean       =   7.8851753295340E-05
(PID.TID 0000.0001) %MON trcstat_ptracer16_sd         =   9.6495965540692E-05
(PID.TID 0000.0001) %MON trcstat_ptracer16_del2       =   0.0000000000000E+00
(PID.TID 0000.0001) %MON trcstat_ptracer17_max        =   4.3519536431214E-03
(PID.TID 0000.0001) %MON trcstat_ptracer17_min        =   1.8797873544542E-05
(PID.TID 0000.0001) %MON trcstat_ptracer17_mean       =   1.2616280527254E-03
(PID.TID 0000.0001) %MON trcstat_ptracer17_sd         =   1.5439354486511E-03
(PID.TID 0000.0001) %MON trcstat_ptracer17_del2       =   0.0000000000000E+00
(PID.TID 0000.0001) %MON trcstat_ptracer18_max        =   2.7199711852782E-07
(PID.TID 0000.0001) %MON trcstat_ptracer18_min        =   1.1748669679955E-09
(PID.TID 0000.0001) %MON trcstat_ptracer18_mean       =   7.8851753821083E-08
(PID.TID 0000.0001) %MON trcstat_ptracer18_sd         =   9.6495967597049E-08
(PID.TID 0000.0001) %MON trcstat_ptracer18_del2       =   0.0000000000000E+00
(PID.TID 0000.0001) %MON trcstat_ptracer19_max        =   1.6246073438269E-02
(PID.TID 0000.0001) %MON trcstat_ptracer19_min        =   1.1391880996625E-03
(PID.TID 0000.0001) %MON trcstat_ptracer19_mean       =   5.4884970900489E-03
(PID.TID 0000.0001) %MON trcstat_ptracer19_sd         =   5.1699313941073E-03
(PID.TID 0000.0001) %MON trcstat_ptracer19_del2       =   0.0000000000000E+00
(PID.TID 0000.0001) %MON trcstat_ptracer20_max        =   2.5625547633491E-02
(PID.TID 0000.0001) %MON trcstat_ptracer20_min        =   1.8764847993847E-07
(PID.TID 0000.0001) %MON trcstat_ptracer20_mean       =   6.0625517627924E-04
(PID.TID 0000.0001) %MON trcstat_ptracer20_sd         =   3.2513527350035E-03
(PID.TID 0000.0001) %MON trcstat_ptracer20_del2       =   0.0000000000000E+00
(PID.TID 0000.0001) %MON trcstat_ptracer21_max        =   1.8252017139747E-02
(PID.TID 0000.0001) %MON trcstat_ptracer21_min        =   3.8786224039580E-06
(PID.TID 0000.0001) %MON trcstat_ptracer21_mean       =   6.0464753582245E-04
(PID.TID 0000.0001) %MON trcstat_ptracer21_sd         =   1.9424907412646E-03
(PID.TID 0000.0001) %MON trcstat_ptracer21_del2       =   0.0000000000000E+00
(PID.TID 0000.0001) %MON trcstat_ptracer22_max        =   7.2846474380692E-06
(PID.TID 0000.0001) %MON trcstat_ptracer22_min        =   6.9529747233171E-34
(PID.TID 0000.0001) %MON trcstat_ptracer22_mean       =   2.1740293920275E-07
(PID.TID 0000.0001) %MON trcstat_ptracer22_sd         =   1.1387012541147E-06
(PID.TID 0000.0001) %MON trcstat_ptracer22_del2       =   0.0000000000000E+00
(PID.TID 0000.0001) %MON trcstat_ptracer23_max        =   7.3650750699393E-06
(PID.TID 0000.0001) %MON trcstat_ptracer23_min        =   1.6411352426164E-38
(PID.TID 0000.0001) %MON trcstat_ptracer23_mean       =   2.1945517616721E-07
(PID.TID 0000.0001) %MON trcstat_ptracer23_sd         =   1.1515289759877E-06
(PID.TID 0000.0001) %MON trcstat_ptracer23_del2       =   0.0000000000000E+00
(PID.TID 0000.0001) %MON trcstat_ptracer24_max        =   7.2846474380698E-06
(PID.TID 0000.0001) %MON trcstat_ptracer24_min        =   6.9529747233171E-34
(PID.TID 0000.0001) %MON trcstat_ptracer24_mean       =   2.1721929442101E-07
(PID.TID 0000.0001) %MON trcstat_ptracer24_sd         =   1.1385393841792E-06
(PID.TID 0000.0001) %MON trcstat_ptracer24_del2       =   0.0000000000000E+00
(PID.TID 0000.0001) %MON trcstat_ptracer25_max        =   7.4247242105676E-06
(PID.TID 0000.0001) %MON trcstat_ptracer25_min        =   6.9529747233171E-34
(PID.TID 0000.0001) %MON trcstat_ptracer25_mean       =   2.2140167352851E-07
(PID.TID 0000.0001) %MON trcstat_ptracer25_sd         =   1.1599508293124E-06
(PID.TID 0000.0001) %MON trcstat_ptracer25_del2       =   0.0000000000000E+00
(PID.TID 0000.0001) %MON trcstat_ptracer26_max        =   7.4066470438663E-06
(PID.TID 0000.0001) %MON trcstat_ptracer26_min        =   1.6411352426164E-38
(PID.TID 0000.0001) %MON trcstat_ptracer26_mean       =   2.2060640376413E-07
(PID.TID 0000.0001) %MON trcstat_ptracer26_sd         =   1.1574942213823E-06
(PID.TID 0000.0001) %MON trcstat_ptracer26_del2       =   0.0000000000000E+00
(PID.TID 0000.0001) %MON trcstat_ptracer27_max        =   7.2849549268304E-06
(PID.TID 0000.0001) %MON trcstat_ptracer27_min        =   1.6411352426164E-38
(PID.TID 0000.0001) %MON trcstat_ptracer27_mean       =   2.1721930341480E-07
(PID.TID 0000.0001) %MON trcstat_ptracer27_sd         =   1.1388296533894E-06
(PID.TID 0000.0001) %MON trcstat_ptracer27_del2       =   0.0000000000000E+00
(PID.TID 0000.0001) %MON trcstat_ptracer28_max        =   7.3556135068422E-06
(PID.TID 0000.0001) %MON trcstat_ptracer28_min        =   1.6411352426164E-38
(PID.TID 0000.0001) %MON trcstat_ptracer28_mean       =   2.1917686295734E-07
(PID.TID 0000.0001) %MON trcstat_ptracer28_sd         =   1.1498093782363E-06
(PID.TID 0000.0001) %MON trcstat_ptracer28_del2       =   0.0000000000000E+00
(PID.TID 0000.0001) %MON trcstat_ptracer29_max        =   7.2849549268290E-06
(PID.TID 0000.0001) %MON trcstat_ptracer29_min        =   1.6411352426164E-38
(PID.TID 0000.0001) %MON trcstat_ptracer29_mean       =   2.1730817528057E-07
(PID.TID 0000.0001) %MON trcstat_ptracer29_sd         =   1.1391651910229E-06
(PID.TID 0000.0001) %MON trcstat_ptracer29_del2       =   0.0000000000000E+00
(PID.TID 0000.0001) %MON trcstat_ptracer30_max        =   7.3127726509910E-06
(PID.TID 0000.0001) %MON trcstat_ptracer30_min        =   1.6411352426164E-38
(PID.TID 0000.0001) %MON trcstat_ptracer30_mean       =   2.1850067603715E-07
(PID.TID 0000.0001) %MON trcstat_ptracer30_sd         =   1.1443586708362E-06
(PID.TID 0000.0001) %MON trcstat_ptracer30_del2       =   0.0000000000000E+00
(PID.TID 0000.0001) %MON trcstat_ptracer31_max        =   7.4305335175104E-06
(PID.TID 0000.0001) %MON trcstat_ptracer31_min        =   1.6411352426164E-38
(PID.TID 0000.0001) %MON trcstat_ptracer31_mean       =   2.2134563397350E-07
(PID.TID 0000.0001) %MON trcstat_ptracer31_sd         =   1.1613170615320E-06
(PID.TID 0000.0001) %MON trcstat_ptracer31_del2       =   0.0000000000000E+00
(PID.TID 0000.0001) %MON trcstat_ptracer32_max        =   7.2849549268327E-06
(PID.TID 0000.0001) %MON trcstat_ptracer32_min        =   1.6411352426164E-38
(PID.TID 0000.0001) %MON trcstat_ptracer32_mean       =   2.1721929438944E-07
(PID.TID 0000.0001) %MON trcstat_ptracer32_sd         =   1.1388296549324E-06
(PID.TID 0000.0001) %MON trcstat_ptracer32_del2       =   0.0000000000000E+00
(PID.TID 0000.0001) %MON trcstat_ptracer33_max        =   7.2849549268289E-06
(PID.TID 0000.0001) %MON trcstat_ptracer33_min        =   1.6411352426164E-38
(PID.TID 0000.0001) %MON trcstat_ptracer33_mean       =   2.1721929438932E-07
(PID.TID 0000.0001) %MON trcstat_ptracer33_sd         =   1.1388296549319E-06
(PID.TID 0000.0001) %MON trcstat_ptracer33_del2       =   0.0000000000000E+00
(PID.TID 0000.0001) %MON trcstat_ptracer34_max        =   7.2846474369394E-06
(PID.TID 0000.0001) %MON trcstat_ptracer34_min        =   6.9529747233171E-34
(PID.TID 0000.0001) %MON trcstat_ptracer34_mean       =   2.1721956459502E-07
(PID.TID 0000.0001) %MON trcstat_ptracer34_sd         =   1.1385393338938E-06
(PID.TID 0000.0001) %MON trcstat_ptracer34_del2       =   0.0000000000000E+00
(PID.TID 0000.0001) %MON trcstat_ptracer35_max        =   7.2849549268293E-06
(PID.TID 0000.0001) %MON trcstat_ptracer35_min        =   1.6411352426164E-38
(PID.TID 0000.0001) %MON trcstat_ptracer35_mean       =   2.1721929438934E-07
(PID.TID 0000.0001) %MON trcstat_ptracer35_sd         =   1.1388296549320E-06
(PID.TID 0000.0001) %MON trcstat_ptracer35_del2       =   0.0000000000000E+00
(PID.TID 0000.0001) %MON trcstat_ptracer36_max        =   7.4525108590807E-06
(PID.TID 0000.0001) %MON trcstat_ptracer36_min        =   1.6411352426164E-38
(PID.TID 0000.0001) %MON trcstat_ptracer36_mean       =   2.2199379368181E-07
(PID.TID 0000.0001) %MON trcstat_ptracer36_sd         =   1.1647288251187E-06
(PID.TID 0000.0001) %MON trcstat_ptracer36_del2       =   0.0000000000000E+00
(PID.TID 0000.0001) %MON trcstat_ptracer37_max        =   7.2846474380701E-06
(PID.TID 0000.0001) %MON trcstat_ptracer37_min        =   6.9529747233171E-34
(PID.TID 0000.0001) %MON trcstat_ptracer37_mean       =   2.1722346744793E-07
(PID.TID 0000.0001) %MON trcstat_ptracer37_sd         =   1.1385387465002E-06
(PID.TID 0000.0001) %MON trcstat_ptracer37_del2       =   0.0000000000000E+00
(PID.TID 0000.0001) %MON trcstat_ptracer38_max        =   7.2846474380701E-06
(PID.TID 0000.0001) %MON trcstat_ptracer38_min        =   6.9529747233171E-34
(PID.TID 0000.0001) %MON trcstat_ptracer38_mean       =   2.1721929442102E-07
(PID.TID 0000.0001) %MON trcstat_ptracer38_sd         =   1.1385393841793E-06
(PID.TID 0000.0001) %MON trcstat_ptracer38_del2       =   0.0000000000000E+00
(PID.TID 0000.0001) %MON trcstat_ptracer39_max        =   7.2849549268330E-06
(PID.TID 0000.0001) %MON trcstat_ptracer39_min        =   1.6411352426164E-38
(PID.TID 0000.0001) %MON trcstat_ptracer39_mean       =   2.1721929438944E-07
(PID.TID 0000.0001) %MON trcstat_ptracer39_sd         =   1.1388296549325E-06
(PID.TID 0000.0001) %MON trcstat_ptracer39_del2       =   0.0000000000000E+00
(PID.TID 0000.0001) %MON trcstat_ptracer40_max        =   7.3549575434362E-06
(PID.TID 0000.0001) %MON trcstat_ptracer40_min        =   6.9529747233171E-34
(PID.TID 0000.0001) %MON trcstat_ptracer40_mean       =   2.1948344143346E-07
(PID.TID 0000.0001) %MON trcstat_ptracer40_sd         =   1.1494870433878E-06
(PID.TID 0000.0001) %MON trcstat_ptracer40_del2       =   0.0000000000000E+00
(PID.TID 0000.0001) %MON trcstat_ptracer41_max        =   7.2846474369401E-06
(PID.TID 0000.0001) %MON trcstat_ptracer41_min        =   6.9529747233171E-34
(PID.TID 0000.0001) %MON trcstat_ptracer41_mean       =   2.1721929459283E-07
(PID.TID 0000.0001) %MON trcstat_ptracer41_sd         =   1.1385393839705E-06
(PID.TID 0000.0001) %MON trcstat_ptracer41_del2       =   0.0000000000000E+00
(PID.TID 0000.0001) %MON trcstat_ptracer42_max        =   7.3087262921137E-06
(PID.TID 0000.0001) %MON trcstat_ptracer42_min        =   6.9529747233171E-34
(PID.TID 0000.0001) %MON trcstat_ptracer42_mean       =   2.1846769586218E-07
(PID.TID 0000.0001) %MON trcstat_ptracer42_sd         =   1.1435498681653E-06
(PID.TID 0000.0001) %MON trcstat_ptracer42_del2       =   0.0000000000000E+00
(PID.TID 0000.0001) %MON trcstat_ptracer43_max        =   7.4516240058804E-06
(PID.TID 0000.0001) %MON trcstat_ptracer43_min        =   6.9529747233171E-34
(PID.TID 0000.0001) %MON trcstat_ptracer43_mean       =   2.2219707141394E-07
(PID.TID 0000.0001) %MON trcstat_ptracer43_sd         =   1.1648533759157E-06
(PID.TID 0000.0001) %MON trcstat_ptracer43_del2       =   0.0000000000000E+00
(PID.TID 0000.0001) %MON trcstat_ptracer44_max        =   7.2849549268301E-06
(PID.TID 0000.0001) %MON trcstat_ptracer44_min        =   1.6411352426164E-38
(PID.TID 0000.0001) %MON trcstat_ptracer44_mean       =   2.1721930183583E-07
(PID.TID 0000.0001) %MON trcstat_ptracer44_sd         =   1.1388296538080E-06
(PID.TID 0000.0001) %MON trcstat_ptracer44_del2       =   0.0000000000000E+00
(PID.TID 0000.0001) %MON trcstat_ptracer45_max        =   7.2846474369387E-06
(PID.TID 0000.0001) %MON trcstat_ptracer45_min        =   6.9529747233171E-34
(PID.TID 0000.0001) %MON trcstat_ptracer45_mean       =   2.1721929438940E-07
(PID.TID 0000.0001) %MON trcstat_ptracer45_sd         =   1.1385393840091E-06
(PID.TID 0000.0001) %MON trcstat_ptracer45_del2       =   0.0000000000000E+00
(PID.TID 0000.0001) %MON trcstat_ptracer46_max        =   7.2849549268291E-06
(PID.TID 0000.0001) %MON trcstat_ptracer46_min        =   1.6411352426164E-38
(PID.TID 0000.0001) %MON trcstat_ptracer46_mean       =   2.1721929869549E-07
(PID.TID 0000.0001) %MON trcstat_ptracer46_sd         =   1.1388296542612E-06
(PID.TID 0000.0001) %MON trcstat_ptracer46_del2       =   0.0000000000000E+00
(PID.TID 0000.0001) %MON trcstat_ptracer47_max        =   7.2849549268288E-06
(PID.TID 0000.0001) %MON trcstat_ptracer47_min        =   1.6411352426164E-38
(PID.TID 0000.0001) %MON trcstat_ptracer47_mean       =   2.1721929438931E-07
(PID.TID 0000.0001) %MON trcstat_ptracer47_sd         =   1.1388296549319E-06
(PID.TID 0000.0001) %MON trcstat_ptracer47_del2       =   0.0000000000000E+00
(PID.TID 0000.0001) %MON trcstat_ptracer48_max        =   7.2849549268293E-06
(PID.TID 0000.0001) %MON trcstat_ptracer48_min        =   1.6411352426164E-38
(PID.TID 0000.0001) %MON trcstat_ptracer48_mean       =   2.1721929438934E-07
(PID.TID 0000.0001) %MON trcstat_ptracer48_sd         =   1.1388296549320E-06
(PID.TID 0000.0001) %MON trcstat_ptracer48_del2       =   0.0000000000000E+00
(PID.TID 0000.0001) %MON trcstat_ptracer49_max        =   7.2849549268293E-06
(PID.TID 0000.0001) %MON trcstat_ptracer49_min        =   1.6411352426164E-38
(PID.TID 0000.0001) %MON trcstat_ptracer49_mean       =   2.1721929438934E-07
(PID.TID 0000.0001) %MON trcstat_ptracer49_sd         =   1.1388296549320E-06
(PID.TID 0000.0001) %MON trcstat_ptracer49_del2       =   0.0000000000000E+00
(PID.TID 0000.0001) %MON trcstat_ptracer50_max        =   7.4413211535218E-06
(PID.TID 0000.0001) %MON trcstat_ptracer50_min        =   6.9529747233171E-34
(PID.TID 0000.0001) %MON trcstat_ptracer50_mean       =   2.2177144156048E-07
(PID.TID 0000.0001) %MON trcstat_ptracer50_sd         =   1.1629466033543E-06
(PID.TID 0000.0001) %MON trcstat_ptracer50_del2       =   0.0000000000000E+00
(PID.TID 0000.0001) %MON trcstat_ptracer51_max        =   7.2849549268338E-06
(PID.TID 0000.0001) %MON trcstat_ptracer51_min        =   1.6411352426164E-38
(PID.TID 0000.0001) %MON trcstat_ptracer51_mean       =   2.1721929438947E-07
(PID.TID 0000.0001) %MON trcstat_ptracer51_sd         =   1.1388296549326E-06
(PID.TID 0000.0001) %MON trcstat_ptracer51_del2       =   0.0000000000000E+00
(PID.TID 0000.0001) %MON trcstat_ptracer52_max        =   7.4460812889903E-06
(PID.TID 0000.0001) %MON trcstat_ptracer52_min        =   6.9529747233171E-34
(PID.TID 0000.0001) %MON trcstat_ptracer52_mean       =   2.2168303394994E-07
(PID.TID 0000.0001) %MON trcstat_ptracer52_sd         =   1.1632584401243E-06
(PID.TID 0000.0001) %MON trcstat_ptracer52_del2       =   0.0000000000000E+00
(PID.TID 0000.0001) %MON trcstat_ptracer53_max        =   7.4492782184328E-06
(PID.TID 0000.0001) %MON trcstat_ptracer53_min        =   1.6411352426164E-38
(PID.TID 0000.0001) %MON trcstat_ptracer53_mean       =   2.2191139842290E-07
(PID.TID 0000.0001) %MON trcstat_ptracer53_sd         =   1.1639075897784E-06
(PID.TID 0000.0001) %MON trcstat_ptracer53_del2       =   0.0000000000000E+00
(PID.TID 0000.0001) %MON trcstat_ptracer54_max        =   7.3714671793283E-06
(PID.TID 0000.0001) %MON trcstat_ptracer54_min        =   6.9529747233171E-34
(PID.TID 0000.0001) %MON trcstat_ptracer54_mean       =   2.1988173230068E-07
(PID.TID 0000.0001) %MON trcstat_ptracer54_sd         =   1.1517260165527E-06
(PID.TID 0000.0001) %MON trcstat_ptracer54_del2       =   0.0000000000000E+00
(PID.TID 0000.0001) %MON trcstat_ptracer55_max        =   7.3984156955056E-06
(PID.TID 0000.0001) %MON trcstat_ptracer55_min        =   1.6411352426164E-38
(PID.TID 0000.0001) %MON trcstat_ptracer55_mean       =   2.2016697770110E-07
(PID.TID 0000.0001) %MON trcstat_ptracer55_sd         =   1.1556277350276E-06
(PID.TID 0000.0001) %MON trcstat_ptracer55_del2       =   0.0000000000000E+00
(PID.TID 0000.0001) %MON trcstat_ptracer56_max        =   7.2849549268314E-06
(PID.TID 0000.0001) %MON trcstat_ptracer56_min        =   1.6411352426164E-38
(PID.TID 0000.0001) %MON trcstat_ptracer56_mean       =   2.1721929438940E-07
(PID.TID 0000.0001) %MON trcstat_ptracer56_sd         =   1.1388296549322E-06
(PID.TID 0000.0001) %MON trcstat_ptracer56_del2       =   0.0000000000000E+00
(PID.TID 0000.0001) %MON trcstat_ptracer57_max        =   7.2846474380680E-06
(PID.TID 0000.0001) %MON trcstat_ptracer57_min        =   6.9529747233171E-34
(PID.TID 0000.0001) %MON trcstat_ptracer57_mean       =   2.1721929442096E-07
(PID.TID 0000.0001) %MON trcstat_ptracer57_sd         =   1.1385393841790E-06
(PID.TID 0000.0001) %MON trcstat_ptracer57_del2       =   0.0000000000000E+00
(PID.TID 0000.0001) %MON trcstat_ptracer58_max        =   7.2849549268308E-06
(PID.TID 0000.0001) %MON trcstat_ptracer58_min        =   1.6411352426164E-38
(PID.TID 0000.0001) %MON trcstat_ptracer58_mean       =   2.1721929438938E-07
(PID.TID 0000.0001) %MON trcstat_ptracer58_sd         =   1.1388296549322E-06
(PID.TID 0000.0001) %MON trcstat_ptracer58_del2       =   0.0000000000000E+00
(PID.TID 0000.0001) %MON trcstat_ptracer59_max        =   7.2849549268339E-06
(PID.TID 0000.0001) %MON trcstat_ptracer59_min        =   1.6411352426164E-38
(PID.TID 0000.0001) %MON trcstat_ptracer59_mean       =   2.1721929438947E-07
(PID.TID 0000.0001) %MON trcstat_ptracer59_sd         =   1.1388296549326E-06
(PID.TID 0000.0001) %MON trcstat_ptracer59_del2       =   0.0000000000000E+00
(PID.TID 0000.0001) %MON trcstat_ptracer60_max        =   7.2849549268322E-06
(PID.TID 0000.0001) %MON trcstat_ptracer60_min        =   1.6411352426164E-38
(PID.TID 0000.0001) %MON trcstat_ptracer60_mean       =   2.1721929438942E-07
(PID.TID 0000.0001) %MON trcstat_ptracer60_sd         =   1.1388296549324E-06
(PID.TID 0000.0001) %MON trcstat_ptracer60_del2       =   0.0000000000000E+00
(PID.TID 0000.0001) %MON trcstat_ptracer61_max        =   7.2846474380701E-06
(PID.TID 0000.0001) %MON trcstat_ptracer61_min        =   6.9529747233171E-34
(PID.TID 0000.0001) %MON trcstat_ptracer61_mean       =   2.1722336582522E-07
(PID.TID 0000.0001) %MON trcstat_ptracer61_sd         =   1.1385387614823E-06
(PID.TID 0000.0001) %MON trcstat_ptracer61_del2       =   0.0000000000000E+00
(PID.TID 0000.0001) %MON trcstat_ptracer62_max        =   7.2849549268303E-06
(PID.TID 0000.0001) %MON trcstat_ptracer62_min        =   1.6411352426164E-38
(PID.TID 0000.0001) %MON trcstat_ptracer62_mean       =   2.1722578565659E-07
(PID.TID 0000.0001) %MON trcstat_ptracer62_sd         =   1.1388287414112E-06
(PID.TID 0000.0001) %MON trcstat_ptracer62_del2       =   0.0000000000000E+00
(PID.TID 0000.0001) %MON trcstat_ptracer63_max        =   7.2846474369398E-06
(PID.TID 0000.0001) %MON trcstat_ptracer63_min        =   6.9529747233171E-34
(PID.TID 0000.0001) %MON trcstat_ptracer63_mean       =   2.1722762694188E-07
(PID.TID 0000.0001) %MON trcstat_ptracer63_sd         =   1.1385381712828E-06
(PID.TID 0000.0001) %MON trcstat_ptracer63_del2       =   0.0000000000000E+00
(PID.TID 0000.0001) %MON trcstat_ptracer64_max        =   7.2849549268339E-06
(PID.TID 0000.0001) %MON trcstat_ptracer64_min        =   1.6411352426164E-38
(PID.TID 0000.0001) %MON trcstat_ptracer64_mean       =   2.1737621819701E-07
(PID.TID 0000.0001) %MON trcstat_ptracer64_sd         =   1.1389495216349E-06
(PID.TID 0000.0001) %MON trcstat_ptracer64_del2       =   0.0000000000000E+00
(PID.TID 0000.0001) %MON trcstat_ptracer65_max        =   7.2846474369388E-06
(PID.TID 0000.0001) %MON trcstat_ptracer65_min        =   6.9529747233171E-34
(PID.TID 0000.0001) %MON trcstat_ptracer65_mean       =   2.1721929449995E-07
(PID.TID 0000.0001) %MON trcstat_ptracer65_sd         =   1.1385393839880E-06
(PID.TID 0000.0001) %MON trcstat_ptracer65_del2       =   0.0000000000000E+00
(PID.TID 0000.0001) %MON trcstat_ptracer66_max        =   7.3511554263011E-06
(PID.TID 0000.0001) %MON trcstat_ptracer66_min        =   1.6411352426164E-38
(PID.TID 0000.0001) %MON trcstat_ptracer66_mean       =   2.1877081921138E-07
(PID.TID 0000.0001) %MON trcstat_ptracer66_sd         =   1.1481447099073E-06
(PID.TID 0000.0001) %MON trcstat_ptracer66_del2       =   0.0000000000000E+00
(PID.TID 0000.0001) %MON trcstat_ptracer67_max        =   7.4479571879442E-06
(PID.TID 0000.0001) %MON trcstat_ptracer67_min        =   6.9529747233171E-34
(PID.TID 0000.0001) %MON trcstat_ptracer67_mean       =   2.2190245760665E-07
(PID.TID 0000.0001) %MON trcstat_ptracer67_sd         =   1.1640322882076E-06
(PID.TID 0000.0001) %MON trcstat_ptracer67_del2       =   0.0000000000000E+00
(PID.TID 0000.0001) %MON trcstat_ptracer68_max        =   7.2846474369405E-06
(PID.TID 0000.0001) %MON trcstat_ptracer68_min        =   6.9529747233171E-34
(PID.TID 0000.0001) %MON trcstat_ptracer68_mean       =   2.1721929438945E-07
(PID.TID 0000.0001) %MON trcstat_ptracer68_sd         =   1.1385393840093E-06
(PID.TID 0000.0001) %MON trcstat_ptracer68_del2       =   0.0000000000000E+00
(PID.TID 0000.0001) %MON trcstat_ptracer69_max        =   7.2846474369402E-06
(PID.TID 0000.0001) %MON trcstat_ptracer69_min        =   6.9529747233171E-34
(PID.TID 0000.0001) %MON trcstat_ptracer69_mean       =   2.1722156294530E-07
(PID.TID 0000.0001) %MON trcstat_ptracer69_sd         =   1.1385390146105E-06
(PID.TID 0000.0001) %MON trcstat_ptracer69_del2       =   0.0000000000000E+00
(PID.TID 0000.0001) %MON trcstat_ptracer70_max        =   7.2846474369397E-06
(PID.TID 0000.0001) %MON trcstat_ptracer70_min        =   6.9529747233171E-34
(PID.TID 0000.0001) %MON trcstat_ptracer70_mean       =   2.1721929438943E-07
(PID.TID 0000.0001) %MON trcstat_ptracer70_sd         =   1.1385393840092E-06
(PID.TID 0000.0001) %MON trcstat_ptracer70_del2       =   0.0000000000000E+00
(PID.TID 0000.0001) %MON trcstat_ptracer71_max        =   7.3814725161853E-06
(PID.TID 0000.0001) %MON trcstat_ptracer71_min        =   1.6411352426164E-38
(PID.TID 0000.0001) %MON trcstat_ptracer71_mean       =   2.2021099208266E-07
(PID.TID 0000.0001) %MON trcstat_ptracer71_sd         =   1.1540933568311E-06
(PID.TID 0000.0001) %MON trcstat_ptracer71_del2       =   0.0000000000000E+00
(PID.TID 0000.0001) %MON trcstat_ptracer72_max        =   7.2849549268345E-06
(PID.TID 0000.0001) %MON trcstat_ptracer72_min        =   1.6411352426164E-38
(PID.TID 0000.0001) %MON trcstat_ptracer72_mean       =   2.1721929438949E-07
(PID.TID 0000.0001) %MON trcstat_ptracer72_sd         =   1.1388296549327E-06
(PID.TID 0000.0001) %MON trcstat_ptracer72_del2       =   0.0000000000000E+00
(PID.TID 0000.0001) %MON trcstat_ptracer73_max        =   7.2846474380699E-06
(PID.TID 0000.0001) %MON trcstat_ptracer73_min        =   6.9529747233171E-34
(PID.TID 0000.0001) %MON trcstat_ptracer73_mean       =   2.1722046503861E-07
(PID.TID 0000.0001) %MON trcstat_ptracer73_sd         =   1.1385391902995E-06
(PID.TID 0000.0001) %MON trcstat_ptracer73_del2       =   0.0000000000000E+00
(PID.TID 0000.0001) %MON trcstat_ptracer74_max        =   7.2846474380691E-06
(PID.TID 0000.0001) %MON trcstat_ptracer74_min        =   6.9529747233171E-34
(PID.TID 0000.0001) %MON trcstat_ptracer74_mean       =   2.1722891461871E-07
(PID.TID 0000.0001) %MON trcstat_ptracer74_sd         =   1.1385380137734E-06
(PID.TID 0000.0001) %MON trcstat_ptracer74_del2       =   0.0000000000000E+00
(PID.TID 0000.0001) %MON trcstat_ptracer75_max        =   7.2846474369388E-06
(PID.TID 0000.0001) %MON trcstat_ptracer75_min        =   6.9529747233171E-34
(PID.TID 0000.0001) %MON trcstat_ptracer75_mean       =   2.1721929438940E-07
(PID.TID 0000.0001) %MON trcstat_ptracer75_sd         =   1.1385393840091E-06
(PID.TID 0000.0001) %MON trcstat_ptracer75_del2       =   0.0000000000000E+00
(PID.TID 0000.0001) %MON trcstat_ptracer76_max        =   7.4519620876558E-06
(PID.TID 0000.0001) %MON trcstat_ptracer76_min        =   6.9529747233171E-34
(PID.TID 0000.0001) %MON trcstat_ptracer76_mean       =   2.2220671329515E-07
(PID.TID 0000.0001) %MON trcstat_ptracer76_sd         =   1.1649602890192E-06
(PID.TID 0000.0001) %MON trcstat_ptracer76_del2       =   0.0000000000000E+00
(PID.TID 0000.0001) %MON trcstat_ptracer77_max        =   7.2846474380700E-06
(PID.TID 0000.0001) %MON trcstat_ptracer77_min        =   6.9529747233171E-34
(PID.TID 0000.0001) %MON trcstat_ptracer77_mean       =   2.1721929442101E-07
(PID.TID 0000.0001) %MON trcstat_ptracer77_sd         =   1.1385393841793E-06
(PID.TID 0000.0001) %MON trcstat_ptracer77_del2       =   0.0000000000000E+00
(PID.TID 0000.0001) %MON trcstat_ptracer78_max        =   7.4472657236852E-06
(PID.TID 0000.0001) %MON trcstat_ptracer78_min        =   6.9529747233171E-34
(PID.TID 0000.0001) %MON trcstat_ptracer78_mean       =   2.2155140921968E-07
(PID.TID 0000.0001) %MON trcstat_ptracer78_sd         =   1.1630210408414E-06
(PID.TID 0000.0001) %MON trcstat_ptracer78_del2       =   0.0000000000000E+00
(PID.TID 0000.0001) %MON trcstat_ptracer79_max        =   7.3463862512101E-06
(PID.TID 0000.0001) %MON trcstat_ptracer79_min        =   6.9529747233171E-34
(PID.TID 0000.0001) %MON trcstat_ptracer79_mean       =   2.1942827140997E-07
(PID.TID 0000.0001) %MON trcstat_ptracer79_sd         =   1.1487379927615E-06
(PID.TID 0000.0001) %MON trcstat_ptracer79_del2       =   0.0000000000000E+00
(PID.TID 0000.0001) %MON trcstat_ptracer80_max        =   7.2846474369412E-06
(PID.TID 0000.0001) %MON trcstat_ptracer80_min        =   6.9529747233171E-34
(PID.TID 0000.0001) %MON trcstat_ptracer80_mean       =   2.1736545714149E-07
(PID.TID 0000.0001) %MON trcstat_ptracer80_sd         =   1.1386117358948E-06
(PID.TID 0000.0001) %MON trcstat_ptracer80_del2       =   0.0000000000000E+00
(PID.TID 0000.0001) %MON trcstat_ptracer81_max        =   7.3129396404705E-06
(PID.TID 0000.0001) %MON trcstat_ptracer81_min        =   6.9529747233171E-34
(PID.TID 0000.0001) %MON trcstat_ptracer81_mean       =   2.1850132773513E-07
(PID.TID 0000.0001) %MON trcstat_ptracer81_sd         =   1.1439355985006E-06
(PID.TID 0000.0001) %MON trcstat_ptracer81_del2       =   0.0000000000000E+00
(PID.TID 0000.0001) %MON trcstat_ptracer82_max        =   7.2846474369400E-06
(PID.TID 0000.0001) %MON trcstat_ptracer82_min        =   6.9529747233171E-34
(PID.TID 0000.0001) %MON trcstat_ptracer82_mean       =   2.1721929438944E-07
(PID.TID 0000.0001) %MON trcstat_ptracer82_sd         =   1.1385393840093E-06
(PID.TID 0000.0001) %MON trcstat_ptracer82_del2       =   0.0000000000000E+00
(PID.TID 0000.0001) %MON trcstat_ptracer83_max        =   7.2846474369386E-06
(PID.TID 0000.0001) %MON trcstat_ptracer83_min        =   6.9529747233171E-34
(PID.TID 0000.0001) %MON trcstat_ptracer83_mean       =   2.1722178397224E-07
(PID.TID 0000.0001) %MON trcstat_ptracer83_sd         =   1.1385389795383E-06
(PID.TID 0000.0001) %MON trcstat_ptracer83_del2       =   0.0000000000000E+00
(PID.TID 0000.0001) %MON trcstat_ptracer84_max        =   7.3890464642358E-06
(PID.TID 0000.0001) %MON trcstat_ptracer84_min        =   6.9529747233171E-34
(PID.TID 0000.0001) %MON trcstat_ptracer84_mean       =   2.2028603438477E-07
(PID.TID 0000.0001) %MON trcstat_ptracer84_sd         =   1.1541443977157E-06
(PID.TID 0000.0001) %MON trcstat_ptracer84_del2       =   0.0000000000000E+00
(PID.TID 0000.0001) %MON trcstat_ptracer85_max        =   7.2849549268301E-06
(PID.TID 0000.0001) %MON trcstat_ptracer85_min        =   1.6411352426164E-38
(PID.TID 0000.0001) %MON trcstat_ptracer85_mean       =   2.1721929438936E-07
(PID.TID 0000.0001) %MON trcstat_ptracer85_sd         =   1.1388296549321E-06
(PID.TID 0000.0001) %MON trcstat_ptracer85_del2       =   0.0000000000000E+00
(PID.TID 0000.0001) %MON trcstat_ptracer86_max        =   7.2846474380682E-06
(PID.TID 0000.0001) %MON trcstat_ptracer86_min        =   6.9529747233171E-34
(PID.TID 0000.0001) %MON trcstat_ptracer86_mean       =   2.1734557762198E-07
(PID.TID 0000.0001) %MON trcstat_ptracer86_sd         =   1.1385870432597E-06
(PID.TID 0000.0001) %MON trcstat_ptracer86_del2       =   0.0000000000000E+00
(PID.TID 0000.0001) %MON trcstat_ptracer87_max        =   7.2849549268291E-06
(PID.TID 0000.0001) %MON trcstat_ptracer87_min        =   1.6411352426164E-38
(PID.TID 0000.0001) %MON trcstat_ptracer87_mean       =   2.1721929438932E-07
(PID.TID 0000.0001) %MON trcstat_ptracer87_sd         =   1.1388296549319E-06
(PID.TID 0000.0001) %MON trcstat_ptracer87_del2       =   0.0000000000000E+00
(PID.TID 0000.0001) %MON trcstat_ptracer88_max        =   7.2846474369396E-06
(PID.TID 0000.0001) %MON trcstat_ptracer88_min        =   6.9529747233171E-34
(PID.TID 0000.0001) %MON trcstat_ptracer88_mean       =   2.1721929438943E-07
(PID.TID 0000.0001) %MON trcstat_ptracer88_sd         =   1.1385393840092E-06
(PID.TID 0000.0001) %MON trcstat_ptracer88_del2       =   0.0000000000000E+00
(PID.TID 0000.0001) %MON trcstat_ptracer89_max        =   7.3290283213535E-06
(PID.TID 0000.0001) %MON trcstat_ptracer89_min        =   6.9529747233171E-34
(PID.TID 0000.0001) %MON trcstat_ptracer89_mean       =   2.1904799132874E-07
(PID.TID 0000.0001) %MON trcstat_ptracer89_sd         =   1.1465345758647E-06
(PID.TID 0000.0001) %MON trcstat_ptracer89_del2       =   0.0000000000000E+00
(PID.TID 0000.0001) %MON trcstat_ptracer90_max        =   7.4092889973370E-06
(PID.TID 0000.0001) %MON trcstat_ptracer90_min        =   1.6411352426164E-38
(PID.TID 0000.0001) %MON trcstat_ptracer90_mean       =   2.2084249792250E-07
(PID.TID 0000.0001) %MON trcstat_ptracer90_sd         =   1.1583918228482E-06
(PID.TID 0000.0001) %MON trcstat_ptracer90_del2       =   0.0000000000000E+00
(PID.TID 0000.0001) %MON trcstat_ptracer91_max        =   7.2849549268301E-06
(PID.TID 0000.0001) %MON trcstat_ptracer91_min        =   1.6411352426164E-38
(PID.TID 0000.0001) %MON trcstat_ptracer91_mean       =   2.1721929438936E-07
(PID.TID 0000.0001) %MON trcstat_ptracer91_sd         =   1.1388296549321E-06
(PID.TID 0000.0001) %MON trcstat_ptracer91_del2       =   0.0000000000000E+00
(PID.TID 0000.0001) %MON trcstat_ptracer92_max        =   7.2849549268295E-06
(PID.TID 0000.0001) %MON trcstat_ptracer92_min        =   1.6411352426164E-38
(PID.TID 0000.0001) %MON trcstat_ptracer92_mean       =   2.1721939029723E-07
(PID.TID 0000.0001) %MON trcstat_ptracer92_sd         =   1.1388296451318E-06
(PID.TID 0000.0001) %MON trcstat_ptracer92_del2       =   0.0000000000000E+00
(PID.TID 0000.0001) %MON trcstat_ptracer93_max        =   7.2846474380700E-06
(PID.TID 0000.0001) %MON trcstat_ptracer93_min        =   6.9529747233171E-34
(PID.TID 0000.0001) %MON trcstat_ptracer93_mean       =   2.1721951897534E-07
(PID.TID 0000.0001) %MON trcstat_ptracer93_sd         =   1.1385393425301E-06
(PID.TID 0000.0001) %MON trcstat_ptracer93_del2       =   0.0000000000000E+00
(PID.TID 0000.0001) %MON trcstat_ptracer94_max        =   7.2849549268299E-06
(PID.TID 0000.0001) %MON trcstat_ptracer94_min        =   1.6411352426164E-38
(PID.TID 0000.0001) %MON trcstat_ptracer94_mean       =   2.1721929438935E-07
(PID.TID 0000.0001) %MON trcstat_ptracer94_sd         =   1.1388296549321E-06
(PID.TID 0000.0001) %MON trcstat_ptracer94_del2       =   0.0000000000000E+00
(PID.TID 0000.0001) %MON trcstat_ptracer95_max        =   7.3165947969790E-06
(PID.TID 0000.0001) %MON trcstat_ptracer95_min        =   6.9529747233171E-34
(PID.TID 0000.0001) %MON trcstat_ptracer95_mean       =   2.1867087453207E-07
(PID.TID 0000.0001) %MON trcstat_ptracer95_sd         =   1.1446548457904E-06
(PID.TID 0000.0001) %MON trcstat_ptracer95_del2       =   0.0000000000000E+00
(PID.TID 0000.0001) %MON trcstat_ptracer96_max        =   7.2846474380682E-06
(PID.TID 0000.0001) %MON trcstat_ptracer96_min        =   6.9529747233171E-34
(PID.TID 0000.0001) %MON trcstat_ptracer96_mean       =   2.1721929442096E-07
(PID.TID 0000.0001) %MON trcstat_ptracer96_sd         =   1.1385393841790E-06
(PID.TID 0000.0001) %MON trcstat_ptracer96_del2       =   0.0000000000000E+00
(PID.TID 0000.0001) %MON trcstat_ptracer97_max        =   7.4415099429250E-06
(PID.TID 0000.0001) %MON trcstat_ptracer97_min        =   6.9529747233171E-34
(PID.TID 0000.0001) %MON trcstat_ptracer97_mean       =   2.2181923467815E-07
(PID.TID 0000.0001) %MON trcstat_ptracer97_sd         =   1.1630224441332E-06
(PID.TID 0000.0001) %MON trcstat_ptracer97_del2       =   0.0000000000000E+00
(PID.TID 0000.0001) %MON trcstat_ptracer98_max        =   7.2850079299777E-06
(PID.TID 0000.0001) %MON trcstat_ptracer98_min        =   6.9529747233171E-34
(PID.TID 0000.0001) %MON trcstat_ptracer98_mean       =   2.1781425264431E-07
(PID.TID 0000.0001) %MON trcstat_ptracer98_sd         =   1.1403850057502E-06
(PID.TID 0000.0001) %MON trcstat_ptracer98_del2       =   0.0000000000000E+00
(PID.TID 0000.0001) %MON trcstat_ptracer99_max        =   7.3833475082423E-06
(PID.TID 0000.0001) %MON trcstat_ptracer99_min        =   1.6411352426164E-38
(PID.TID 0000.0001) %MON trcstat_ptracer99_mean       =   2.1992317592566E-07
(PID.TID 0000.0001) %MON trcstat_ptracer99_sd         =   1.1541822717264E-06
(PID.TID 0000.0001) %MON trcstat_ptracer99_del2       =   0.0000000000000E+00
(PID.TID 0000.0001) // =======================================================
(PID.TID 0000.0001) // End MONITOR ptracers field statistics
(PID.TID 0000.0001) // =======================================================
time,SST,SSS,fu,fv,Q,E-P,i0,i1,a,b =   7.2000E+03  2.5680E+01  0.0000E+00  0.0000E+00  0.0000E+00  0.0000E+00  0.0000E+00    12     1  5.0278E-01  4.9722E-01
time,fu0,fu1,fu =   7.2000E+03  0.0000E+00  0.0000E+00  0.0000E+00  5.027777777777778E-01  4.972222222222222E-01
(PID.TID 0000.0001) // =======================================================
(PID.TID 0000.0001) // Begin MONITOR dynamic field statistics
(PID.TID 0000.0001) // =======================================================
(PID.TID 0000.0001) %MON time_tsnumber                =                     3
(PID.TID 0000.0001) %MON time_secondsf                =   1.0800000000000E+04
(PID.TID 0000.0001) %MON dynstat_eta_max              =   0.0000000000000E+00
(PID.TID 0000.0001) %MON dynstat_eta_min              =   0.0000000000000E+00
(PID.TID 0000.0001) %MON dynstat_eta_mean             =   0.0000000000000E+00
(PID.TID 0000.0001) %MON dynstat_eta_sd               =   0.0000000000000E+00
(PID.TID 0000.0001) %MON dynstat_eta_del2             =   0.0000000000000E+00
(PID.TID 0000.0001) %MON dynstat_uvel_max             =   0.0000000000000E+00
(PID.TID 0000.0001) %MON dynstat_uvel_min             =   0.0000000000000E+00
(PID.TID 0000.0001) %MON dynstat_uvel_mean            =   0.0000000000000E+00
(PID.TID 0000.0001) %MON dynstat_uvel_sd              =   0.0000000000000E+00
(PID.TID 0000.0001) %MON dynstat_uvel_del2            =   0.0000000000000E+00
(PID.TID 0000.0001) %MON dynstat_vvel_max             =   0.0000000000000E+00
(PID.TID 0000.0001) %MON dynstat_vvel_min             =   0.0000000000000E+00
(PID.TID 0000.0001) %MON dynstat_vvel_mean            =   0.0000000000000E+00
(PID.TID 0000.0001) %MON dynstat_vvel_sd              =   0.0000000000000E+00
(PID.TID 0000.0001) %MON dynstat_vvel_del2            =   0.0000000000000E+00
(PID.TID 0000.0001) %MON dynstat_wvel_max             =   0.0000000000000E+00
(PID.TID 0000.0001) %MON dynstat_wvel_min             =   0.0000000000000E+00
(PID.TID 0000.0001) %MON dynstat_wvel_mean            =   0.0000000000000E+00
(PID.TID 0000.0001) %MON dynstat_wvel_sd              =   0.0000000000000E+00
(PID.TID 0000.0001) %MON dynstat_wvel_del2            =   0.0000000000000E+00
(PID.TID 0000.0001) %MON dynstat_theta_max            =   2.6316641728912E+01
(PID.TID 0000.0001) %MON dynstat_theta_min            =   2.6737007672781E+00
(PID.TID 0000.0001) %MON dynstat_theta_mean           =   5.4735157557642E+00
(PID.TID 0000.0001) %MON dynstat_theta_sd             =   5.1968480490481E+00
(PID.TID 0000.0001) %MON dynstat_theta_del2           =   0.0000000000000E+00
(PID.TID 0000.0001) %MON dynstat_salt_max             =   3.5000000000000E+01
(PID.TID 0000.0001) %MON dynstat_salt_min             =   3.5000000000000E+01
(PID.TID 0000.0001) %MON dynstat_salt_mean            =   3.5000000000000E+01
(PID.TID 0000.0001) %MON dynstat_salt_sd              =   7.1054273576010E-15
(PID.TID 0000.0001) %MON dynstat_salt_del2            =   0.0000000000000E+00
(PID.TID 0000.0001) %MON dynstat_sst_max              =   2.6316641728912E+01
(PID.TID 0000.0001) %MON dynstat_sst_min              =   2.6316641728912E+01
(PID.TID 0000.0001) %MON dynstat_sst_mean             =   2.6316641728912E+01
(PID.TID 0000.0001) %MON dynstat_sst_sd               =   0.0000000000000E+00
(PID.TID 0000.0001) %MON dynstat_sst_del2             =   0.0000000000000E+00
(PID.TID 0000.0001) %MON dynstat_sss_max              =   3.5000000000000E+01
(PID.TID 0000.0001) %MON dynstat_sss_min              =   3.5000000000000E+01
(PID.TID 0000.0001) %MON dynstat_sss_mean             =   3.5000000000000E+01
(PID.TID 0000.0001) %MON dynstat_sss_sd               =   0.0000000000000E+00
(PID.TID 0000.0001) %MON dynstat_sss_del2             =   0.0000000000000E+00
(PID.TID 0000.0001) %MON forcing_qnet_max             =   0.0000000000000E+00
(PID.TID 0000.0001) %MON forcing_qnet_min             =   0.0000000000000E+00
(PID.TID 0000.0001) %MON forcing_qnet_mean            =   0.0000000000000E+00
(PID.TID 0000.0001) %MON forcing_qnet_sd              =   0.0000000000000E+00
(PID.TID 0000.0001) %MON forcing_qnet_del2            =   0.0000000000000E+00
(PID.TID 0000.0001) %MON forcing_qsw_max              =   0.0000000000000E+00
(PID.TID 0000.0001) %MON forcing_qsw_min              =   0.0000000000000E+00
(PID.TID 0000.0001) %MON forcing_qsw_mean             =   0.0000000000000E+00
(PID.TID 0000.0001) %MON forcing_qsw_sd               =   0.0000000000000E+00
(PID.TID 0000.0001) %MON forcing_qsw_del2             =   0.0000000000000E+00
(PID.TID 0000.0001) %MON forcing_empmr_max            =   0.0000000000000E+00
(PID.TID 0000.0001) %MON forcing_empmr_min            =   0.0000000000000E+00
(PID.TID 0000.0001) %MON forcing_empmr_mean           =   0.0000000000000E+00
(PID.TID 0000.0001) %MON forcing_empmr_sd             =   0.0000000000000E+00
(PID.TID 0000.0001) %MON forcing_empmr_del2           =   0.0000000000000E+00
(PID.TID 0000.0001) %MON forcing_fu_max               =   0.0000000000000E+00
(PID.TID 0000.0001) %MON forcing_fu_min               =   0.0000000000000E+00
(PID.TID 0000.0001) %MON forcing_fu_mean              =   0.0000000000000E+00
(PID.TID 0000.0001) %MON forcing_fu_sd                =   0.0000000000000E+00
(PID.TID 0000.0001) %MON forcing_fu_del2              =   0.0000000000000E+00
(PID.TID 0000.0001) %MON forcing_fv_max               =   0.0000000000000E+00
(PID.TID 0000.0001) %MON forcing_fv_min               =   0.0000000000000E+00
(PID.TID 0000.0001) %MON forcing_fv_mean              =   0.0000000000000E+00
(PID.TID 0000.0001) %MON forcing_fv_sd                =   0.0000000000000E+00
(PID.TID 0000.0001) %MON forcing_fv_del2              =   0.0000000000000E+00
(PID.TID 0000.0001) %MON advcfl_uvel_max              =   0.0000000000000E+00
(PID.TID 0000.0001) %MON advcfl_vvel_max              =   0.0000000000000E+00
(PID.TID 0000.0001) %MON advcfl_wvel_max              =   0.0000000000000E+00
(PID.TID 0000.0001) %MON advcfl_W_hf_max              =   0.0000000000000E+00
(PID.TID 0000.0001) %MON pe_b_mean                    =   0.0000000000000E+00
(PID.TID 0000.0001) %MON ke_max                       =   0.0000000000000E+00
(PID.TID 0000.0001) %MON ke_mean                      =   0.0000000000000E+00
(PID.TID 0000.0001) %MON ke_vol                       =   4.1199767883485E+13
(PID.TID 0000.0001) %MON vort_r_min                   =   0.0000000000000E+00
(PID.TID 0000.0001) %MON vort_r_max                   =   0.0000000000000E+00
(PID.TID 0000.0001) %MON vort_a_mean                  =  -4.5067801836625E-05
(PID.TID 0000.0001) %MON vort_a_sd                    =  -4.1359030627651E-25
(PID.TID 0000.0001) %MON vort_p_mean                  =  -4.5067801836625E-05
(PID.TID 0000.0001) %MON vort_p_sd                    =   0.0000000000000E+00
(PID.TID 0000.0001) %MON surfExpan_theta_mean         =   0.0000000000000E+00
(PID.TID 0000.0001) %MON surfExpan_salt_mean          =   0.0000000000000E+00
(PID.TID 0000.0001) // =======================================================
(PID.TID 0000.0001) // End MONITOR dynamic field statistics
(PID.TID 0000.0001) // =======================================================
(PID.TID 0000.0001) // =======================================================
(PID.TID 0000.0001) // Begin MONITOR ptracer field statistics
(PID.TID 0000.0001) // =======================================================
(PID.TID 0000.0001) %MON trcstat_ptracer01_max        =   2.2436997399334E+00
(PID.TID 0000.0001) %MON trcstat_ptracer01_min        =   2.1025506368869E-01
(PID.TID 0000.0001) %MON trcstat_ptracer01_mean       =   1.5821340747953E+00
(PID.TID 0000.0001) %MON trcstat_ptracer01_sd         =   4.6734973225372E-01
(PID.TID 0000.0001) %MON trcstat_ptracer01_del2       =   0.0000000000000E+00
(PID.TID 0000.0001) %MON trcstat_ptracer02_max        =   3.3903494635909E+01
(PID.TID 0000.0001) %MON trcstat_ptracer02_min        =   4.6436537756449E-02
(PID.TID 0000.0001) %MON trcstat_ptracer02_mean       =   2.3502391128784E+01
(PID.TID 0000.0001) %MON trcstat_ptracer02_sd         =   7.8161979384855E+00
(PID.TID 0000.0001) %MON trcstat_ptracer02_del2       =   0.0000000000000E+00
(PID.TID 0000.0001) %MON trcstat_ptracer03_max        =   1.3003902295207E-03
(PID.TID 0000.0001) %MON trcstat_ptracer03_min        =   1.2999561756367E-03
(PID.TID 0000.0001) %MON trcstat_ptracer03_mean       =   1.2999577380489E-03
(PID.TID 0000.0001) %MON trcstat_ptracer03_sd         =   2.3176884906536E-08
(PID.TID 0000.0001) %MON trcstat_ptracer03_del2       =   0.0000000000000E+00
(PID.TID 0000.0001) %MON trcstat_ptracer04_max        =   3.9387400882396E+01
(PID.TID 0000.0001) %MON trcstat_ptracer04_min        =   1.2247970155942E+00
(PID.TID 0000.0001) %MON trcstat_ptracer04_mean       =   2.9621890532551E+01
(PID.TID 0000.0001) %MON trcstat_ptracer04_sd         =   1.1270583368082E+01
(PID.TID 0000.0001) %MON trcstat_ptracer04_del2       =   0.0000000000000E+00
(PID.TID 0000.0001) %MON trcstat_ptracer05_max        =   5.1114922261528E-03
(PID.TID 0000.0001) %MON trcstat_ptracer05_min        =   2.7018802641276E-34
(PID.TID 0000.0001) %MON trcstat_ptracer05_mean       =   2.1460306520128E-04
(PID.TID 0000.0001) %MON trcstat_ptracer05_sd         =   9.2393657205758E-04
(PID.TID 0000.0001) %MON trcstat_ptracer05_del2       =   0.0000000000000E+00
(PID.TID 0000.0001) %MON trcstat_ptracer06_max        =   8.1783875618444E-02
(PID.TID 0000.0001) %MON trcstat_ptracer06_min        =   4.3230084226042E-33
(PID.TID 0000.0001) %MON trcstat_ptracer06_mean       =   3.4336490432204E-03
(PID.TID 0000.0001) %MON trcstat_ptracer06_sd         =   1.4782985152921E-02
(PID.TID 0000.0001) %MON trcstat_ptracer06_del2       =   0.0000000000000E+00
(PID.TID 0000.0001) %MON trcstat_ptracer07_max        =   5.1114918673357E-06
(PID.TID 0000.0001) %MON trcstat_ptracer07_min        =   2.7018762048731E-37
(PID.TID 0000.0001) %MON trcstat_ptracer07_mean       =   2.1460306550740E-07
(PID.TID 0000.0001) %MON trcstat_ptracer07_sd         =   9.2393657171586E-07
(PID.TID 0000.0001) %MON trcstat_ptracer07_del2       =   0.0000000000000E+00
(PID.TID 0000.0001) %MON trcstat_ptracer08_max        =   1.0318465536799E-09
(PID.TID 0000.0001) %MON trcstat_ptracer08_min        =   3.4526288373147E-36
(PID.TID 0000.0001) %MON trcstat_ptracer08_mean       =   1.3645243277135E-10
(PID.TID 0000.0001) %MON trcstat_ptracer08_sd         =   2.4958141907170E-10
(PID.TID 0000.0001) %MON trcstat_ptracer08_del2       =   0.0000000000000E+00
(PID.TID 0000.0001) %MON trcstat_ptracer09_max        =   1.6509544858878E-08
(PID.TID 0000.0001) %MON trcstat_ptracer09_min        =   5.5242061397036E-35
(PID.TID 0000.0001) %MON trcstat_ptracer09_mean       =   2.1832389243417E-09
(PID.TID 0000.0001) %MON trcstat_ptracer09_sd         =   3.9933027051473E-09
(PID.TID 0000.0001) %MON trcstat_ptracer09_del2       =   0.0000000000000E+00
(PID.TID 0000.0001) %MON trcstat_ptracer10_max        =   1.0318465182725E-12
(PID.TID 0000.0001) %MON trcstat_ptracer10_min        =   3.4526285894395E-39
(PID.TID 0000.0001) %MON trcstat_ptracer10_mean       =   1.3645242376534E-13
(PID.TID 0000.0001) %MON trcstat_ptracer10_sd         =   2.4958140483706E-13
(PID.TID 0000.0001) %MON trcstat_ptracer10_del2       =   0.0000000000000E+00
(PID.TID 0000.0001) %MON trcstat_ptracer11_max        =   4.2366800404901E-09
(PID.TID 0000.0001) %MON trcstat_ptracer11_min        =   2.0339945261568E-35
(PID.TID 0000.0001) %MON trcstat_ptracer11_mean       =   5.1356776282915E-10
(PID.TID 0000.0001) %MON trcstat_ptracer11_sd         =   1.0335548314242E-09
(PID.TID 0000.0001) %MON trcstat_ptracer11_del2       =   0.0000000000000E+00
(PID.TID 0000.0001) %MON trcstat_ptracer12_max        =   1.0318638821882E-09
(PID.TID 0000.0001) %MON trcstat_ptracer12_min        =   3.4526288373154E-36
(PID.TID 0000.0001) %MON trcstat_ptracer12_mean       =   1.3645292538626E-10
(PID.TID 0000.0001) %MON trcstat_ptracer12_sd         =   2.4958307037309E-10
(PID.TID 0000.0001) %MON trcstat_ptracer12_del2       =   0.0000000000000E+00
(PID.TID 0000.0001) %MON trcstat_ptracer13_max        =   1.6509822115011E-08
(PID.TID 0000.0001) %MON trcstat_ptracer13_min        =   5.5242061397046E-35
(PID.TID 0000.0001) %MON trcstat_ptracer13_mean       =   2.1832468061802E-09
(PID.TID 0000.0001) %MON trcstat_ptracer13_sd         =   3.9933291259695E-09
(PID.TID 0000.0001) %MON trcstat_ptracer13_del2       =   0.0000000000000E+00
(PID.TID 0000.0001) %MON trcstat_ptracer14_max        =   1.0318638467808E-12
(PID.TID 0000.0001) %MON trcstat_ptracer14_min        =   3.4526285894401E-39
(PID.TID 0000.0001) %MON trcstat_ptracer14_mean       =   1.3645291638025E-13
(PID.TID 0000.0001) %MON trcstat_ptracer14_sd         =   2.4958305613855E-13
(PID.TID 0000.0001) %MON trcstat_ptracer14_del2       =   0.0000000000000E+00
(PID.TID 0000.0001) %MON trcstat_ptracer15_max        =   4.2366800408385E-09
(PID.TID 0000.0001) %MON trcstat_ptracer15_min        =   2.0339945261583E-35
(PID.TID 0000.0001) %MON trcstat_ptracer15_mean       =   5.1358063797200E-10
(PID.TID 0000.0001) %MON trcstat_ptracer15_sd         =   1.0335484366564E-09
(PID.TID 0000.0001) %MON trcstat_ptracer15_del2       =   0.0000000000000E+00
(PID.TID 0000.0001) %MON trcstat_ptracer16_max        =   2.7176109620491E-04
(PID.TID 0000.0001) %MON trcstat_ptracer16_min        =   1.1758700017279E-06
(PID.TID 0000.0001) %MON trcstat_ptracer16_mean       =   7.8811709618448E-05
(PID.TID 0000.0001) %MON trcstat_ptracer16_sd         =   9.6427141962725E-05
(PID.TID 0000.0001) %MON trcstat_ptracer16_del2       =   0.0000000000000E+00
(PID.TID 0000.0001) %MON trcstat_ptracer17_max        =   4.3481775392785E-03
(PID.TID 0000.0001) %MON trcstat_ptracer17_min        =   1.8813920027646E-05
(PID.TID 0000.0001) %MON trcstat_ptracer17_mean       =   1.2609873538952E-03
(PID.TID 0000.0001) %MON trcstat_ptracer17_sd         =   1.5428342714036E-03
(PID.TID 0000.0001) %MON trcstat_ptracer17_del2       =   0.0000000000000E+00
(PID.TID 0000.0001) %MON trcstat_ptracer18_max        =   2.7176111210358E-07
(PID.TID 0000.0001) %MON trcstat_ptracer18_min        =   1.1758698733136E-09
(PID.TID 0000.0001) %MON trcstat_ptracer18_mean       =   7.8811710143752E-08
(PID.TID 0000.0001) %MON trcstat_ptracer18_sd         =   9.6427144017948E-08
(PID.TID 0000.0001) %MON trcstat_ptracer18_del2       =   0.0000000000000E+00
(PID.TID 0000.0001) %MON trcstat_ptracer19_max        =   1.6242578554936E-02
(PID.TID 0000.0001) %MON trcstat_ptracer19_min        =   1.1396871723566E-03
(PID.TID 0000.0001) %MON trcstat_ptracer19_mean       =   5.4880115085171E-03
(PID.TID 0000.0001) %MON trcstat_ptracer19_sd         =   5.1683224484319E-03
(PID.TID 0000.0001) %MON trcstat_ptracer19_del2       =   0.0000000000000E+00
(PID.TID 0000.0001) %MON trcstat_ptracer20_max        =   2.5646225719925E-02
(PID.TID 0000.0001) %MON trcstat_ptracer20_min        =   1.8767602871184E-07
(PID.TID 0000.0001) %MON trcstat_ptracer20_mean       =   6.0761405519348E-04
(PID.TID 0000.0001) %MON trcstat_ptracer20_sd         =   3.2557511956126E-03
(PID.TID 0000.0001) %MON trcstat_ptracer20_del2       =   0.0000000000000E+00
(PID.TID 0000.0001) %MON trcstat_ptracer21_max        =   1.8248795770486E-02
(PID.TID 0000.0001) %MON trcstat_ptracer21_min        =   3.8780993188188E-06
(PID.TID 0000.0001) %MON trcstat_ptracer21_mean       =   6.0460026593829E-04
(PID.TID 0000.0001) %MON trcstat_ptracer21_sd         =   1.9423022767532E-03
(PID.TID 0000.0001) %MON trcstat_ptracer21_del2       =   0.0000000000000E+00
(PID.TID 0000.0001) %MON trcstat_ptracer22_max        =   7.2540871846827E-06
(PID.TID 0000.0001) %MON trcstat_ptracer22_min        =   1.6970042425561E-31
(PID.TID 0000.0001) %MON trcstat_ptracer22_mean       =   2.1658986862809E-07
(PID.TID 0000.0001) %MON trcstat_ptracer22_sd         =   1.1338885387694E-06
(PID.TID 0000.0001) %MON trcstat_ptracer22_del2       =   0.0000000000000E+00
(PID.TID 0000.0001) %MON trcstat_ptracer23_max        =   7.3745722232834E-06
(PID.TID 0000.0001) %MON trcstat_ptracer23_min        =   4.9152451728308E-38
(PID.TID 0000.0001) %MON trcstat_ptracer23_mean       =   2.1966481286134E-07
(PID.TID 0000.0001) %MON trcstat_ptracer23_sd         =   1.1531107082150E-06
(PID.TID 0000.0001) %MON trcstat_ptracer23_del2       =   0.0000000000000E+00
(PID.TID 0000.0001) %MON trcstat_ptracer24_max        =   7.2540871846836E-06
(PID.TID 0000.0001) %MON trcstat_ptracer24_min        =   1.6970042425561E-31
(PID.TID 0000.0001) %MON trcstat_ptracer24_mean       =   2.1631421399114E-07
(PID.TID 0000.0001) %MON trcstat_ptracer24_sd         =   1.1336459350327E-06
(PID.TID 0000.0001) %MON trcstat_ptracer24_del2       =   0.0000000000000E+00
(PID.TID 0000.0001) %MON trcstat_ptracer25_max        =   7.4642961150178E-06
(PID.TID 0000.0001) %MON trcstat_ptracer25_min        =   1.6970042425561E-31
(PID.TID 0000.0001) %MON trcstat_ptracer25_mean       =   2.2259409711417E-07
(PID.TID 0000.0001) %MON trcstat_ptracer25_sd         =   1.1657846280623E-06
(PID.TID 0000.0001) %MON trcstat_ptracer25_del2       =   0.0000000000000E+00
(PID.TID 0000.0001) %MON trcstat_ptracer26_max        =   7.4370988619542E-06
(PID.TID 0000.0001) %MON trcstat_ptracer26_min        =   4.9152451728308E-38
(PID.TID 0000.0001) %MON trcstat_ptracer26_mean       =   2.2139444181679E-07
(PID.TID 0000.0001) %MON trcstat_ptracer26_sd         =   1.1620789095249E-06
(PID.TID 0000.0001) %MON trcstat_ptracer26_del2       =   0.0000000000000E+00
(PID.TID 0000.0001) %MON trcstat_ptracer27_max        =   7.2545461146789E-06
(PID.TID 0000.0001) %MON trcstat_ptracer27_min        =   4.9152451728308E-38
(PID.TID 0000.0001) %MON trcstat_ptracer27_mean       =   2.1631422745112E-07
(PID.TID 0000.0001) %MON trcstat_ptracer27_sd         =   1.1340787568709E-06
(PID.TID 0000.0001) %MON trcstat_ptracer27_del2       =   0.0000000000000E+00
(PID.TID 0000.0001) %MON trcstat_ptracer28_max        =   7.3603622070032E-06
(PID.TID 0000.0001) %MON trcstat_ptracer28_min        =   4.9152451728308E-38
(PID.TID 0000.0001) %MON trcstat_ptracer28_mean       =   2.1924684944573E-07
(PID.TID 0000.0001) %MON trcstat_ptracer28_sd         =   1.1505277818074E-06
(PID.TID 0000.0001) %MON trcstat_ptracer28_del2       =   0.0000000000000E+00
(PID.TID 0000.0001) %MON trcstat_ptracer29_max        =   7.2545461146769E-06
(PID.TID 0000.0001) %MON trcstat_ptracer29_min        =   4.9152451728308E-38
(PID.TID 0000.0001) %MON trcstat_ptracer29_mean       =   2.1644718365353E-07
(PID.TID 0000.0001) %MON trcstat_ptracer29_sd         =   1.1345805678251E-06
(PID.TID 0000.0001) %MON trcstat_ptracer29_del2       =   0.0000000000000E+00
(PID.TID 0000.0001) %MON trcstat_ptracer30_max        =   7.2961492126159E-06
(PID.TID 0000.0001) %MON trcstat_ptracer30_min        =   4.9152451728308E-38
(PID.TID 0000.0001) %MON trcstat_ptracer30_mean       =   2.1823287782759E-07
(PID.TID 0000.0001) %MON trcstat_ptracer30_sd         =   1.1423639028258E-06
(PID.TID 0000.0001) %MON trcstat_ptracer30_del2       =   0.0000000000000E+00
(PID.TID 0000.0001) %MON trcstat_ptracer31_max        =   7.4731042794600E-06
(PID.TID 0000.0001) %MON trcstat_ptracer31_min        =   4.9152451728308E-38
(PID.TID 0000.0001) %MON trcstat_ptracer31_mean       =   2.2250806061097E-07
(PID.TID 0000.0001) %MON trcstat_ptracer31_sd         =   1.1678406404608E-06
(PID.TID 0000.0001) %MON trcstat_ptracer31_del2       =   0.0000000000000E+00
(PID.TID 0000.0001) %MON trcstat_ptracer32_max        =   7.2545461146822E-06
(PID.TID 0000.0001) %MON trcstat_ptracer32_min        =   4.9152451728308E-38
(PID.TID 0000.0001) %MON trcstat_ptracer32_mean       =   2.1631421394401E-07
(PID.TID 0000.0001) %MON trcstat_ptracer32_sd         =   1.1340787591806E-06
(PID.TID 0000.0001) %MON trcstat_ptracer32_del2       =   0.0000000000000E+00
(PID.TID 0000.0001) %MON trcstat_ptracer33_max        =   7.2545461146766E-06
(PID.TID 0000.0001) %MON trcstat_ptracer33_min        =   4.9152451728308E-38
(PID.TID 0000.0001) %MON trcstat_ptracer33_mean       =   2.1631421394383E-07
(PID.TID 0000.0001) %MON trcstat_ptracer33_sd         =   1.1340787591797E-06
(PID.TID 0000.0001) %MON trcstat_ptracer33_del2       =   0.0000000000000E+00
(PID.TID 0000.0001) %MON trcstat_ptracer34_max        =   7.2540871829964E-06
(PID.TID 0000.0001) %MON trcstat_ptracer34_min        =   1.6970042425561E-31
(PID.TID 0000.0001) %MON trcstat_ptracer34_mean       =   2.1631462020390E-07
(PID.TID 0000.0001) %MON trcstat_ptracer34_sd         =   1.1336458594345E-06
(PID.TID 0000.0001) %MON trcstat_ptracer34_del2       =   0.0000000000000E+00
(PID.TID 0000.0001) %MON trcstat_ptracer35_max        =   7.2545461146772E-06
(PID.TID 0000.0001) %MON trcstat_ptracer35_min        =   4.9152451728308E-38
(PID.TID 0000.0001) %MON trcstat_ptracer35_mean       =   2.1631421394386E-07
(PID.TID 0000.0001) %MON trcstat_ptracer35_sd         =   1.1340787591799E-06
(PID.TID 0000.0001) %MON trcstat_ptracer35_del2       =   0.0000000000000E+00
(PID.TID 0000.0001) %MON trcstat_ptracer36_max        =   7.5062868100880E-06
(PID.TID 0000.0001) %MON trcstat_ptracer36_min        =   4.9152451728308E-38
(PID.TID 0000.0001) %MON trcstat_ptracer36_mean       =   2.2348626847696E-07
(PID.TID 0000.0001) %MON trcstat_ptracer36_sd         =   1.1729916424682E-06
(PID.TID 0000.0001) %MON trcstat_ptracer36_del2       =   0.0000000000000E+00
(PID.TID 0000.0001) %MON trcstat_ptracer37_max        =   7.2540871846841E-06
(PID.TID 0000.0001) %MON trcstat_ptracer37_min        =   1.6970042425561E-31
(PID.TID 0000.0001) %MON trcstat_ptracer37_mean       =   2.1632047083583E-07
(PID.TID 0000.0001) %MON trcstat_ptracer37_sd         =   1.1336449792450E-06
(PID.TID 0000.0001) %MON trcstat_ptracer37_del2       =   0.0000000000000E+00
(PID.TID 0000.0001) %MON trcstat_ptracer38_max        =   7.2540871846841E-06
(PID.TID 0000.0001) %MON trcstat_ptracer38_min        =   1.6970042425561E-31
(PID.TID 0000.0001) %MON trcstat_ptracer38_mean       =   2.1631421399115E-07
(PID.TID 0000.0001) %MON trcstat_ptracer38_sd         =   1.1336459350328E-06
(PID.TID 0000.0001) %MON trcstat_ptracer38_del2       =   0.0000000000000E+00
(PID.TID 0000.0001) %MON trcstat_ptracer39_max        =   7.2545461146827E-06
(PID.TID 0000.0001) %MON trcstat_ptracer39_min        =   4.9152451728308E-38
(PID.TID 0000.0001) %MON trcstat_ptracer39_mean       =   2.1631421394402E-07
(PID.TID 0000.0001) %MON trcstat_ptracer39_sd         =   1.1340787591807E-06
(PID.TID 0000.0001) %MON trcstat_ptracer39_del2       =   0.0000000000000E+00
(PID.TID 0000.0001) %MON trcstat_ptracer40_max        =   7.3593649705194E-06
(PID.TID 0000.0001) %MON trcstat_ptracer40_min        =   1.6970042425561E-31
(PID.TID 0000.0001) %MON trcstat_ptracer40_mean       =   2.1970776179060E-07
(PID.TID 0000.0001) %MON trcstat_ptracer40_sd         =   1.1500487138247E-06
(PID.TID 0000.0001) %MON trcstat_ptracer40_del2       =   0.0000000000000E+00
(PID.TID 0000.0001) %MON trcstat_ptracer41_max        =   7.2540871829974E-06
(PID.TID 0000.0001) %MON trcstat_ptracer41_min        =   1.6970042425561E-31
(PID.TID 0000.0001) %MON trcstat_ptracer41_mean       =   2.1631421451204E-07
(PID.TID 0000.0001) %MON trcstat_ptracer41_sd         =   1.1336459346707E-06
(PID.TID 0000.0001) %MON trcstat_ptracer41_del2       =   0.0000000000000E+00
(PID.TID 0000.0001) %MON trcstat_ptracer42_max        =   7.2900786462851E-06
(PID.TID 0000.0001) %MON trcstat_ptracer42_min        =   1.6970042425561E-31
(PID.TID 0000.0001) %MON trcstat_ptracer42_mean       =   2.1818538606677E-07
(PID.TID 0000.0001) %MON trcstat_ptracer42_sd         =   1.1411546855971E-06
(PID.TID 0000.0001) %MON trcstat_ptracer42_del2       =   0.0000000000000E+00
(PID.TID 0000.0001) %MON trcstat_ptracer43_max        =   7.5048793437540E-06
(PID.TID 0000.0001) %MON trcstat_ptracer43_min        =   1.6970042425561E-31
(PID.TID 0000.0001) %MON trcstat_ptracer43_mean       =   2.2379372466829E-07
(PID.TID 0000.0001) %MON trcstat_ptracer43_sd         =   1.1731792566523E-06
(PID.TID 0000.0001) %MON trcstat_ptracer43_del2       =   0.0000000000000E+00
(PID.TID 0000.0001) %MON trcstat_ptracer44_max        =   7.2545461146784E-06
(PID.TID 0000.0001) %MON trcstat_ptracer44_min        =   4.9152451728308E-38
(PID.TID 0000.0001) %MON trcstat_ptracer44_mean       =   2.1631422547227E-07
(PID.TID 0000.0001) %MON trcstat_ptracer44_sd         =   1.1340787574397E-06
(PID.TID 0000.0001) %MON trcstat_ptracer44_del2       =   0.0000000000000E+00
(PID.TID 0000.0001) %MON trcstat_ptracer45_max        =   7.2540871829953E-06
(PID.TID 0000.0001) %MON trcstat_ptracer45_min        =   1.6970042425561E-31
(PID.TID 0000.0001) %MON trcstat_ptracer45_mean       =   2.1631421394396E-07
(PID.TID 0000.0001) %MON trcstat_ptracer45_sd         =   1.1336459347787E-06
(PID.TID 0000.0001) %MON trcstat_ptracer45_del2       =   0.0000000000000E+00
(PID.TID 0000.0001) %MON trcstat_ptracer46_max        =   7.2545461146769E-06
(PID.TID 0000.0001) %MON trcstat_ptracer46_min        =   4.9152451728308E-38
(PID.TID 0000.0001) %MON trcstat_ptracer46_mean       =   2.1631422061053E-07
(PID.TID 0000.0001) %MON trcstat_ptracer46_sd         =   1.1340787581413E-06
(PID.TID 0000.0001) %MON trcstat_ptracer46_del2       =   0.0000000000000E+00
(PID.TID 0000.0001) %MON trcstat_ptracer47_max        =   7.2545461146764E-06
(PID.TID 0000.0001) %MON trcstat_ptracer47_min        =   4.9152451728308E-38
(PID.TID 0000.0001) %MON trcstat_ptracer47_mean       =   2.1631421394383E-07
(PID.TID 0000.0001) %MON trcstat_ptracer47_sd         =   1.1340787591797E-06
(PID.TID 0000.0001) %MON trcstat_ptracer47_del2       =   0.0000000000000E+00
(PID.TID 0000.0001) %MON trcstat_ptracer48_max        =   7.2545461146772E-06
(PID.TID 0000.0001) %MON trcstat_ptracer48_min        =   4.9152451728308E-38
(PID.TID 0000.0001) %MON trcstat_ptracer48_mean       =   2.1631421394386E-07
(PID.TID 0000.0001) %MON trcstat_ptracer48_sd         =   1.1340787591799E-06
(PID.TID 0000.0001) %MON trcstat_ptracer48_del2       =   0.0000000000000E+00
(PID.TID 0000.0001) %MON trcstat_ptracer49_max        =   7.2545461146771E-06
(PID.TID 0000.0001) %MON trcstat_ptracer49_min        =   4.9152451728308E-38
(PID.TID 0000.0001) %MON trcstat_ptracer49_mean       =   2.1631421394386E-07
(PID.TID 0000.0001) %MON trcstat_ptracer49_sd         =   1.1340787591799E-06
(PID.TID 0000.0001) %MON trcstat_ptracer49_del2       =   0.0000000000000E+00
(PID.TID 0000.0001) %MON trcstat_ptracer50_max        =   7.4893355134672E-06
(PID.TID 0000.0001) %MON trcstat_ptracer50_min        =   1.6970042425561E-31
(PID.TID 0000.0001) %MON trcstat_ptracer50_mean       =   2.2315035993163E-07
(PID.TID 0000.0001) %MON trcstat_ptracer50_sd         =   1.1702982486648E-06
(PID.TID 0000.0001) %MON trcstat_ptracer50_del2       =   0.0000000000000E+00
(PID.TID 0000.0001) %MON trcstat_ptracer51_max        =   7.2545461146838E-06
(PID.TID 0000.0001) %MON trcstat_ptracer51_min        =   4.9152451728308E-38
(PID.TID 0000.0001) %MON trcstat_ptracer51_mean       =   2.1631421394406E-07
(PID.TID 0000.0001) %MON trcstat_ptracer51_sd         =   1.1340787591808E-06
(PID.TID 0000.0001) %MON trcstat_ptracer51_del2       =   0.0000000000000E+00
(PID.TID 0000.0001) %MON trcstat_ptracer52_max        =   7.4965183203489E-06
(PID.TID 0000.0001) %MON trcstat_ptracer52_min        =   1.6970042425561E-31
(PID.TID 0000.0001) %MON trcstat_ptracer52_mean       =   2.2301758486216E-07
(PID.TID 0000.0001) %MON trcstat_ptracer52_sd         =   1.1707745941147E-06
(PID.TID 0000.0001) %MON trcstat_ptracer52_del2       =   0.0000000000000E+00
(PID.TID 0000.0001) %MON trcstat_ptracer53_max        =   7.5014044134392E-06
(PID.TID 0000.0001) %MON trcstat_ptracer53_min        =   4.9152451728308E-38
(PID.TID 0000.0001) %MON trcstat_ptracer53_mean       =   2.2336173221652E-07
(PID.TID 0000.0001) %MON trcstat_ptracer53_sd         =   1.1717505897908E-06
(PID.TID 0000.0001) %MON trcstat_ptracer53_del2       =   0.0000000000000E+00
(PID.TID 0000.0001) %MON trcstat_ptracer54_max        =   7.3841569097440E-06
(PID.TID 0000.0001) %MON trcstat_ptracer54_min        =   1.6970042425561E-31
(PID.TID 0000.0001) %MON trcstat_ptracer54_mean       =   2.2030573003431E-07
(PID.TID 0000.0001) %MON trcstat_ptracer54_sd         =   1.1534081859491E-06
(PID.TID 0000.0001) %MON trcstat_ptracer54_del2       =   0.0000000000000E+00
(PID.TID 0000.0001) %MON trcstat_ptracer55_max        =   7.4247004927114E-06
(PID.TID 0000.0001) %MON trcstat_ptracer55_min        =   4.9152451728308E-38
(PID.TID 0000.0001) %MON trcstat_ptracer55_mean       =   2.2073402443133E-07
(PID.TID 0000.0001) %MON trcstat_ptracer55_sd         =   1.1592741057363E-06
(PID.TID 0000.0001) %MON trcstat_ptracer55_del2       =   0.0000000000000E+00
(PID.TID 0000.0001) %MON trcstat_ptracer56_max        =   7.2545461146802E-06
(PID.TID 0000.0001) %MON trcstat_ptracer56_min        =   4.9152451728308E-38
(PID.TID 0000.0001) %MON trcstat_ptracer56_mean       =   2.1631421394395E-07
(PID.TID 0000.0001) %MON trcstat_ptracer56_sd         =   1.1340787591803E-06
(PID.TID 0000.0001) %MON trcstat_ptracer56_del2       =   0.0000000000000E+00
(PID.TID 0000.0001) %MON trcstat_ptracer57_max        =   7.2540871846811E-06
(PID.TID 0000.0001) %MON trcstat_ptracer57_min        =   1.6970042425561E-31
(PID.TID 0000.0001) %MON trcstat_ptracer57_mean       =   2.1631421399106E-07
(PID.TID 0000.0001) %MON trcstat_ptracer57_sd         =   1.1336459350323E-06
(PID.TID 0000.0001) %MON trcstat_ptracer57_del2       =   0.0000000000000E+00
(PID.TID 0000.0001) %MON trcstat_ptracer58_max        =   7.2545461146794E-06
(PID.TID 0000.0001) %MON trcstat_ptracer58_min        =   4.9152451728308E-38
(PID.TID 0000.0001) %MON trcstat_ptracer58_mean       =   2.1631421394393E-07
(PID.TID 0000.0001) %MON trcstat_ptracer58_sd         =   1.1340787591801E-06
(PID.TID 0000.0001) %MON trcstat_ptracer58_del2       =   0.0000000000000E+00
(PID.TID 0000.0001) %MON trcstat_ptracer59_max        =   7.2545461146841E-06
(PID.TID 0000.0001) %MON trcstat_ptracer59_min        =   4.9152451728308E-38
(PID.TID 0000.0001) %MON trcstat_ptracer59_mean       =   2.1631421394406E-07
(PID.TID 0000.0001) %MON trcstat_ptracer59_sd         =   1.1340787591809E-06
(PID.TID 0000.0001) %MON trcstat_ptracer59_del2       =   0.0000000000000E+00
(PID.TID 0000.0001) %MON trcstat_ptracer60_max        =   7.2545461146815E-06
(PID.TID 0000.0001) %MON trcstat_ptracer60_min        =   4.9152451728308E-38
(PID.TID 0000.0001) %MON trcstat_ptracer60_mean       =   2.1631421394399E-07
(PID.TID 0000.0001) %MON trcstat_ptracer60_sd         =   1.1340787591805E-06
(PID.TID 0000.0001) %MON trcstat_ptracer60_del2       =   0.0000000000000E+00
(PID.TID 0000.0001) %MON trcstat_ptracer61_max        =   7.2540871846842E-06
(PID.TID 0000.0001) %MON trcstat_ptracer61_min        =   1.6970042425561E-31
(PID.TID 0000.0001) %MON trcstat_ptracer61_mean       =   2.1632031685263E-07
(PID.TID 0000.0001) %MON trcstat_ptracer61_sd         =   1.1336450019107E-06
(PID.TID 0000.0001) %MON trcstat_ptracer61_del2       =   0.0000000000000E+00
(PID.TID 0000.0001) %MON trcstat_ptracer62_max        =   7.2545461146786E-06
(PID.TID 0000.0001) %MON trcstat_ptracer62_min        =   4.9152451728308E-38
(PID.TID 0000.0001) %MON trcstat_ptracer62_mean       =   2.1632392828031E-07
(PID.TID 0000.0001) %MON trcstat_ptracer62_sd         =   1.1340773934086E-06
(PID.TID 0000.0001) %MON trcstat_ptracer62_del2       =   0.0000000000000E+00
(PID.TID 0000.0001) %MON trcstat_ptracer63_max        =   7.2540871829970E-06
(PID.TID 0000.0001) %MON trcstat_ptracer63_min        =   1.6970042425561E-31
(PID.TID 0000.0001) %MON trcstat_ptracer63_mean       =   2.1632672112051E-07
(PID.TID 0000.0001) %MON trcstat_ptracer63_sd         =   1.1336441160672E-06
(PID.TID 0000.0001) %MON trcstat_ptracer63_del2       =   0.0000000000000E+00
(PID.TID 0000.0001) %MON trcstat_ptracer64_max        =   7.2545461146840E-06
(PID.TID 0000.0001) %MON trcstat_ptracer64_min        =   4.9152451728308E-38
(PID.TID 0000.0001) %MON trcstat_ptracer64_mean       =   2.1654930864593E-07
(PID.TID 0000.0001) %MON trcstat_ptracer64_sd         =   1.1342583368454E-06
(PID.TID 0000.0001) %MON trcstat_ptracer64_del2       =   0.0000000000000E+00
(PID.TID 0000.0001) %MON trcstat_ptracer65_max        =   7.2540871829954E-06
(PID.TID 0000.0001) %MON trcstat_ptracer65_min        =   1.6970042425561E-31
(PID.TID 0000.0001) %MON trcstat_ptracer65_mean       =   2.1631421425265E-07
(PID.TID 0000.0001) %MON trcstat_ptracer65_sd         =   1.1336459347199E-06
(PID.TID 0000.0001) %MON trcstat_ptracer65_del2       =   0.0000000000000E+00
(PID.TID 0000.0001) %MON trcstat_ptracer66_max        =   7.3536782180387E-06
(PID.TID 0000.0001) %MON trcstat_ptracer66_min        =   4.9152451728308E-38
(PID.TID 0000.0001) %MON trcstat_ptracer66_mean       =   2.1863806125980E-07
(PID.TID 0000.0001) %MON trcstat_ptracer66_sd         =   1.1480381718476E-06
(PID.TID 0000.0001) %MON trcstat_ptracer66_del2       =   0.0000000000000E+00
(PID.TID 0000.0001) %MON trcstat_ptracer67_max        =   7.4993461341358E-06
(PID.TID 0000.0001) %MON trcstat_ptracer67_min        =   1.6970042425561E-31
(PID.TID 0000.0001) %MON trcstat_ptracer67_mean       =   2.2334842485549E-07
(PID.TID 0000.0001) %MON trcstat_ptracer67_sd         =   1.1719404650290E-06
(PID.TID 0000.0001) %MON trcstat_ptracer67_del2       =   0.0000000000000E+00
(PID.TID 0000.0001) %MON trcstat_ptracer68_max        =   7.2540871829980E-06
(PID.TID 0000.0001) %MON trcstat_ptracer68_min        =   1.6970042425561E-31
(PID.TID 0000.0001) %MON trcstat_ptracer68_mean       =   2.1631421394404E-07
(PID.TID 0000.0001) %MON trcstat_ptracer68_sd         =   1.1336459347792E-06
(PID.TID 0000.0001) %MON trcstat_ptracer68_del2       =   0.0000000000000E+00
(PID.TID 0000.0001) %MON trcstat_ptracer69_max        =   7.2540871829975E-06
(PID.TID 0000.0001) %MON trcstat_ptracer69_min        =   1.6970042425561E-31
(PID.TID 0000.0001) %MON trcstat_ptracer69_mean       =   2.1631761558872E-07
(PID.TID 0000.0001) %MON trcstat_ptracer69_sd         =   1.1336453809850E-06
(PID.TID 0000.0001) %MON trcstat_ptracer69_del2       =   0.0000000000000E+00
(PID.TID 0000.0001) %MON trcstat_ptracer70_max        =   7.2540871829967E-06
(PID.TID 0000.0001) %MON trcstat_ptracer70_min        =   1.6970042425561E-31
(PID.TID 0000.0001) %MON trcstat_ptracer70_mean       =   2.1631421394400E-07
(PID.TID 0000.0001) %MON trcstat_ptracer70_sd         =   1.1336459347790E-06
(PID.TID 0000.0001) %MON trcstat_ptracer70_del2       =   0.0000000000000E+00
(PID.TID 0000.0001) %MON trcstat_ptracer71_max        =   7.3991612487009E-06
(PID.TID 0000.0001) %MON trcstat_ptracer71_min        =   4.9152451728308E-38
(PID.TID 0000.0001) %MON trcstat_ptracer71_mean       =   2.2080011549462E-07
(PID.TID 0000.0001) %MON trcstat_ptracer71_sd         =   1.1569651149684E-06
(PID.TID 0000.0001) %MON trcstat_ptracer71_del2       =   0.0000000000000E+00
(PID.TID 0000.0001) %MON trcstat_ptracer72_max        =   7.2545461146849E-06
(PID.TID 0000.0001) %MON trcstat_ptracer72_min        =   4.9152451728308E-38
(PID.TID 0000.0001) %MON trcstat_ptracer72_mean       =   2.1631421394409E-07
(PID.TID 0000.0001) %MON trcstat_ptracer72_sd         =   1.1340787591810E-06
(PID.TID 0000.0001) %MON trcstat_ptracer72_del2       =   0.0000000000000E+00
(PID.TID 0000.0001) %MON trcstat_ptracer73_max        =   7.2540871846839E-06
(PID.TID 0000.0001) %MON trcstat_ptracer73_min        =   1.6970042425561E-31
(PID.TID 0000.0001) %MON trcstat_ptracer73_mean       =   2.1631596787288E-07
(PID.TID 0000.0001) %MON trcstat_ptracer73_sd         =   1.1336456445314E-06
(PID.TID 0000.0001) %MON trcstat_ptracer73_del2       =   0.0000000000000E+00
(PID.TID 0000.0001) %MON trcstat_ptracer74_max        =   7.2540871846826E-06
(PID.TID 0000.0001) %MON trcstat_ptracer74_min        =   1.6970042425561E-31
(PID.TID 0000.0001) %MON trcstat_ptracer74_mean       =   2.1632865541041E-07
(PID.TID 0000.0001) %MON trcstat_ptracer74_sd         =   1.1336438802105E-06
(PID.TID 0000.0001) %MON trcstat_ptracer74_del2       =   0.0000000000000E+00
(PID.TID 0000.0001) %MON trcstat_ptracer75_max        =   7.2540871829954E-06
(PID.TID 0000.0001) %MON trcstat_ptracer75_min        =   1.6970042425561E-31
(PID.TID 0000.0001) %MON trcstat_ptracer75_mean       =   2.1631421394396E-07
(PID.TID 0000.0001) %MON trcstat_ptracer75_sd         =   1.1336459347788E-06
(PID.TID 0000.0001) %MON trcstat_ptracer75_del2       =   0.0000000000000E+00
(PID.TID 0000.0001) %MON trcstat_ptracer76_max        =   7.5053895518572E-06
(PID.TID 0000.0001) %MON trcstat_ptracer76_min        =   1.6970042425561E-31
(PID.TID 0000.0001) %MON trcstat_ptracer76_mean       =   2.2380816952845E-07
(PID.TID 0000.0001) %MON trcstat_ptracer76_sd         =   1.1733406660480E-06
(PID.TID 0000.0001) %MON trcstat_ptracer76_del2       =   0.0000000000000E+00
(PID.TID 0000.0001) %MON trcstat_ptracer77_max        =   7.2540871846839E-06
(PID.TID 0000.0001) %MON trcstat_ptracer77_min        =   1.6970042425561E-31
(PID.TID 0000.0001) %MON trcstat_ptracer77_mean       =   2.1631421399115E-07
(PID.TID 0000.0001) %MON trcstat_ptracer77_sd         =   1.1336459350328E-06
(PID.TID 0000.0001) %MON trcstat_ptracer77_del2       =   0.0000000000000E+00
(PID.TID 0000.0001) %MON trcstat_ptracer78_max        =   7.4983088604037E-06
(PID.TID 0000.0001) %MON trcstat_ptracer78_min        =   1.6970042425561E-31
(PID.TID 0000.0001) %MON trcstat_ptracer78_mean       =   2.2281969732855E-07
(PID.TID 0000.0001) %MON trcstat_ptracer78_sd         =   1.1704221209301E-06
(PID.TID 0000.0001) %MON trcstat_ptracer78_del2       =   0.0000000000000E+00
(PID.TID 0000.0001) %MON trcstat_ptracer79_max        =   7.3465000874733E-06
(PID.TID 0000.0001) %MON trcstat_ptracer79_min        =   1.6970042425561E-31
(PID.TID 0000.0001) %MON trcstat_ptracer79_mean       =   2.1962626923532E-07
(PID.TID 0000.0001) %MON trcstat_ptracer79_sd         =   1.1489333648521E-06
(PID.TID 0000.0001) %MON trcstat_ptracer79_del2       =   0.0000000000000E+00
(PID.TID 0000.0001) %MON trcstat_ptracer80_max        =   7.2540871829990E-06
(PID.TID 0000.0001) %MON trcstat_ptracer80_min        =   1.6970042425561E-31
(PID.TID 0000.0001) %MON trcstat_ptracer80_mean       =   2.1653372817062E-07
(PID.TID 0000.0001) %MON trcstat_ptracer80_sd         =   1.1337544983176E-06
(PID.TID 0000.0001) %MON trcstat_ptracer80_del2       =   0.0000000000000E+00
(PID.TID 0000.0001) %MON trcstat_ptracer81_max        =   7.2963851492615E-06
(PID.TID 0000.0001) %MON trcstat_ptracer81_min        =   1.6970042425561E-31
(PID.TID 0000.0001) %MON trcstat_ptracer81_mean       =   2.1823503433288E-07
(PID.TID 0000.0001) %MON trcstat_ptracer81_sd         =   1.1417290981477E-06
(PID.TID 0000.0001) %MON trcstat_ptracer81_del2       =   0.0000000000000E+00
(PID.TID 0000.0001) %MON trcstat_ptracer82_max        =   7.2540871829972E-06
(PID.TID 0000.0001) %MON trcstat_ptracer82_min        =   1.6970042425561E-31
(PID.TID 0000.0001) %MON trcstat_ptracer82_mean       =   2.1631421394401E-07
(PID.TID 0000.0001) %MON trcstat_ptracer82_sd         =   1.1336459347790E-06
(PID.TID 0000.0001) %MON trcstat_ptracer82_del2       =   0.0000000000000E+00
(PID.TID 0000.0001) %MON trcstat_ptracer83_max        =   7.2540871829952E-06
(PID.TID 0000.0001) %MON trcstat_ptracer83_min        =   1.6970042425561E-31
(PID.TID 0000.0001) %MON trcstat_ptracer83_mean       =   2.1631794783006E-07
(PID.TID 0000.0001) %MON trcstat_ptracer83_sd         =   1.1336453283073E-06
(PID.TID 0000.0001) %MON trcstat_ptracer83_del2       =   0.0000000000000E+00
(PID.TID 0000.0001) %MON trcstat_ptracer84_max        =   7.4105854497092E-06
(PID.TID 0000.0001) %MON trcstat_ptracer84_min        =   1.6970042425561E-31
(PID.TID 0000.0001) %MON trcstat_ptracer84_mean       =   2.2091308656001E-07
(PID.TID 0000.0001) %MON trcstat_ptracer84_sd         =   1.1570384161273E-06
(PID.TID 0000.0001) %MON trcstat_ptracer84_del2       =   0.0000000000000E+00
(PID.TID 0000.0001) %MON trcstat_ptracer85_max        =   7.2545461146784E-06
(PID.TID 0000.0001) %MON trcstat_ptracer85_min        =   4.9152451728308E-38
(PID.TID 0000.0001) %MON trcstat_ptracer85_mean       =   2.1631421394390E-07
(PID.TID 0000.0001) %MON trcstat_ptracer85_sd         =   1.1340787591800E-06
(PID.TID 0000.0001) %MON trcstat_ptracer85_del2       =   0.0000000000000E+00
(PID.TID 0000.0001) %MON trcstat_ptracer86_max        =   7.2540871846813E-06
(PID.TID 0000.0001) %MON trcstat_ptracer86_min        =   1.6970042425561E-31
(PID.TID 0000.0001) %MON trcstat_ptracer86_mean       =   2.1650395619779E-07
(PID.TID 0000.0001) %MON trcstat_ptracer86_sd         =   1.1337174382581E-06
(PID.TID 0000.0001) %MON trcstat_ptracer86_del2       =   0.0000000000000E+00
(PID.TID 0000.0001) %MON trcstat_ptracer87_max        =   7.2545461146768E-06
(PID.TID 0000.0001) %MON trcstat_ptracer87_min        =   4.9152451728308E-38
(PID.TID 0000.0001) %MON trcstat_ptracer87_mean       =   2.1631421394384E-07
(PID.TID 0000.0001) %MON trcstat_ptracer87_sd         =   1.1340787591798E-06
(PID.TID 0000.0001) %MON trcstat_ptracer87_del2       =   0.0000000000000E+00
(PID.TID 0000.0001) %MON trcstat_ptracer88_max        =   7.2540871829967E-06
(PID.TID 0000.0001) %MON trcstat_ptracer88_min        =   1.6970042425561E-31
(PID.TID 0000.0001) %MON trcstat_ptracer88_mean       =   2.1631421394400E-07
(PID.TID 0000.0001) %MON trcstat_ptracer88_sd         =   1.1336459347790E-06
(PID.TID 0000.0001) %MON trcstat_ptracer88_del2       =   0.0000000000000E+00
(PID.TID 0000.0001) %MON trcstat_ptracer89_max        =   7.3204759987314E-06
(PID.TID 0000.0001) %MON trcstat_ptracer89_min        =   1.6970042425561E-31
(PID.TID 0000.0001) %MON trcstat_ptracer89_mean       =   2.1905615354595E-07
(PID.TID 0000.0001) %MON trcstat_ptracer89_sd         =   1.1456320436523E-06
(PID.TID 0000.0001) %MON trcstat_ptracer89_del2       =   0.0000000000000E+00
(PID.TID 0000.0001) %MON trcstat_ptracer90_max        =   7.4410822719648E-06
(PID.TID 0000.0001) %MON trcstat_ptracer90_min        =   4.9152451728308E-38
(PID.TID 0000.0001) %MON trcstat_ptracer90_mean       =   2.2174977114027E-07
(PID.TID 0000.0001) %MON trcstat_ptracer90_sd         =   1.1634299763645E-06
(PID.TID 0000.0001) %MON trcstat_ptracer90_del2       =   0.0000000000000E+00
(PID.TID 0000.0001) %MON trcstat_ptracer91_max        =   7.2545461146784E-06
(PID.TID 0000.0001) %MON trcstat_ptracer91_min        =   4.9152451728308E-38
(PID.TID 0000.0001) %MON trcstat_ptracer91_mean       =   2.1631421394390E-07
(PID.TID 0000.0001) %MON trcstat_ptracer91_sd         =   1.1340787591801E-06
(PID.TID 0000.0001) %MON trcstat_ptracer91_del2       =   0.0000000000000E+00
(PID.TID 0000.0001) %MON trcstat_ptracer92_max        =   7.2545461146774E-06
(PID.TID 0000.0001) %MON trcstat_ptracer92_min        =   4.9152451728308E-38
(PID.TID 0000.0001) %MON trcstat_ptracer92_mean       =   2.1631436237827E-07
(PID.TID 0000.0001) %MON trcstat_ptracer92_sd         =   1.1340787440146E-06
(PID.TID 0000.0001) %MON trcstat_ptracer92_del2       =   0.0000000000000E+00
(PID.TID 0000.0001) %MON trcstat_ptracer93_max        =   7.2540871846840E-06
(PID.TID 0000.0001) %MON trcstat_ptracer93_min        =   1.6970042425561E-31
(PID.TID 0000.0001) %MON trcstat_ptracer93_mean       =   2.1631455150490E-07
(PID.TID 0000.0001) %MON trcstat_ptracer93_sd         =   1.1336458724362E-06
(PID.TID 0000.0001) %MON trcstat_ptracer93_del2       =   0.0000000000000E+00
(PID.TID 0000.0001) %MON trcstat_ptracer94_max        =   7.2545461146781E-06
(PID.TID 0000.0001) %MON trcstat_ptracer94_min        =   4.9152451728308E-38
(PID.TID 0000.0001) %MON trcstat_ptracer94_mean       =   2.1631421394388E-07
(PID.TID 0000.0001) %MON trcstat_ptracer94_sd         =   1.1340787591800E-06
(PID.TID 0000.0001) %MON trcstat_ptracer94_del2       =   0.0000000000000E+00
(PID.TID 0000.0001) %MON trcstat_ptracer95_max        =   7.3018551433546E-06
(PID.TID 0000.0001) %MON trcstat_ptracer95_min        =   1.6970042425561E-31
(PID.TID 0000.0001) %MON trcstat_ptracer95_mean       =   2.1848997056655E-07
(PID.TID 0000.0001) %MON trcstat_ptracer95_sd         =   1.1428107350913E-06
(PID.TID 0000.0001) %MON trcstat_ptracer95_del2       =   0.0000000000000E+00
(PID.TID 0000.0001) %MON trcstat_ptracer96_max        =   7.2540871846813E-06
(PID.TID 0000.0001) %MON trcstat_ptracer96_min        =   1.6970042425561E-31
(PID.TID 0000.0001) %MON trcstat_ptracer96_mean       =   2.1631421399107E-07
(PID.TID 0000.0001) %MON trcstat_ptracer96_sd         =   1.1336459350324E-06
(PID.TID 0000.0001) %MON trcstat_ptracer96_del2       =   0.0000000000000E+00
(PID.TID 0000.0001) %MON trcstat_ptracer97_max        =   7.4896179884536E-06
(PID.TID 0000.0001) %MON trcstat_ptracer97_min        =   1.6970042425561E-31
(PID.TID 0000.0001) %MON trcstat_ptracer97_mean       =   2.2322253042071E-07
(PID.TID 0000.0001) %MON trcstat_ptracer97_sd         =   1.1704124647796E-06
(PID.TID 0000.0001) %MON trcstat_ptracer97_del2       =   0.0000000000000E+00
(PID.TID 0000.0001) %MON trcstat_ptracer98_max        =   7.2546295095742E-06
(PID.TID 0000.0001) %MON trcstat_ptracer98_min        =   1.6970042425561E-31
(PID.TID 0000.0001) %MON trcstat_ptracer98_mean       =   2.1720560815648E-07
(PID.TID 0000.0001) %MON trcstat_ptracer98_sd         =   1.1364098772172E-06
(PID.TID 0000.0001) %MON trcstat_ptracer98_del2       =   0.0000000000000E+00
(PID.TID 0000.0001) %MON trcstat_ptracer99_max        =   7.4020880184984E-06
(PID.TID 0000.0001) %MON trcstat_ptracer99_min        =   4.9152451728308E-38
(PID.TID 0000.0001) %MON trcstat_ptracer99_mean       =   2.2036799002877E-07
(PID.TID 0000.0001) %MON trcstat_ptracer99_sd         =   1.1571005271411E-06
(PID.TID 0000.0001) %MON trcstat_ptracer99_del2       =   0.0000000000000E+00
(PID.TID 0000.0001) // =======================================================
(PID.TID 0000.0001) // End MONITOR ptracers field statistics
(PID.TID 0000.0001) // =======================================================
time,SST,SSS,fu,fv,Q,E-P,i0,i1,a,b =   1.0800E+04  2.5682E+01  0.0000E+00  0.0000E+00  0.0000E+00  0.0000E+00  0.0000E+00    12     1  5.0417E-01  4.9583E-01
time,fu0,fu1,fu =   1.0800E+04  0.0000E+00  0.0000E+00  0.0000E+00  5.041666666666667E-01  4.958333333333333E-01
(PID.TID 0000.0001) // =======================================================
(PID.TID 0000.0001) // Begin MONITOR dynamic field statistics
(PID.TID 0000.0001) // =======================================================
(PID.TID 0000.0001) %MON time_tsnumber                =                     4
(PID.TID 0000.0001) %MON time_secondsf                =   1.4400000000000E+04
(PID.TID 0000.0001) %MON dynstat_eta_max              =   0.0000000000000E+00
(PID.TID 0000.0001) %MON dynstat_eta_min              =   0.0000000000000E+00
(PID.TID 0000.0001) %MON dynstat_eta_mean             =   0.0000000000000E+00
(PID.TID 0000.0001) %MON dynstat_eta_sd               =   0.0000000000000E+00
(PID.TID 0000.0001) %MON dynstat_eta_del2             =   0.0000000000000E+00
(PID.TID 0000.0001) %MON dynstat_uvel_max             =   0.0000000000000E+00
(PID.TID 0000.0001) %MON dynstat_uvel_min             =   0.0000000000000E+00
(PID.TID 0000.0001) %MON dynstat_uvel_mean            =   0.0000000000000E+00
(PID.TID 0000.0001) %MON dynstat_uvel_sd              =   0.0000000000000E+00
(PID.TID 0000.0001) %MON dynstat_uvel_del2            =   0.0000000000000E+00
(PID.TID 0000.0001) %MON dynstat_vvel_max             =   0.0000000000000E+00
(PID.TID 0000.0001) %MON dynstat_vvel_min             =   0.0000000000000E+00
(PID.TID 0000.0001) %MON dynstat_vvel_mean            =   0.0000000000000E+00
(PID.TID 0000.0001) %MON dynstat_vvel_sd              =   0.0000000000000E+00
(PID.TID 0000.0001) %MON dynstat_vvel_del2            =   0.0000000000000E+00
(PID.TID 0000.0001) %MON dynstat_wvel_max             =   0.0000000000000E+00
(PID.TID 0000.0001) %MON dynstat_wvel_min             =   0.0000000000000E+00
(PID.TID 0000.0001) %MON dynstat_wvel_mean            =   0.0000000000000E+00
(PID.TID 0000.0001) %MON dynstat_wvel_sd              =   0.0000000000000E+00
(PID.TID 0000.0001) %MON dynstat_wvel_del2            =   0.0000000000000E+00
(PID.TID 0000.0001) %MON dynstat_theta_max            =   2.6307340345579E+01
(PID.TID 0000.0001) %MON dynstat_theta_min            =   2.6737009916297E+00
(PID.TID 0000.0001) %MON dynstat_theta_mean           =   5.4734908053328E+00
(PID.TID 0000.0001) %MON dynstat_theta_sd             =   5.1967318185908E+00
(PID.TID 0000.0001) %MON dynstat_theta_del2           =   0.0000000000000E+00
(PID.TID 0000.0001) %MON dynstat_salt_max             =   3.5000000000000E+01
(PID.TID 0000.0001) %MON dynstat_salt_min             =   3.5000000000000E+01
(PID.TID 0000.0001) %MON dynstat_salt_mean            =   3.5000000000000E+01
(PID.TID 0000.0001) %MON dynstat_salt_sd              =   7.1054273576010E-15
(PID.TID 0000.0001) %MON dynstat_salt_del2            =   0.0000000000000E+00
(PID.TID 0000.0001) %MON dynstat_sst_max              =   2.6307340345579E+01
(PID.TID 0000.0001) %MON dynstat_sst_min              =   2.6307340345579E+01
(PID.TID 0000.0001) %MON dynstat_sst_mean             =   2.6307340345579E+01
(PID.TID 0000.0001) %MON dynstat_sst_sd               =   0.0000000000000E+00
(PID.TID 0000.0001) %MON dynstat_sst_del2             =   0.0000000000000E+00
(PID.TID 0000.0001) %MON dynstat_sss_max              =   3.5000000000000E+01
(PID.TID 0000.0001) %MON dynstat_sss_min              =   3.5000000000000E+01
(PID.TID 0000.0001) %MON dynstat_sss_mean             =   3.5000000000000E+01
(PID.TID 0000.0001) %MON dynstat_sss_sd               =   0.0000000000000E+00
(PID.TID 0000.0001) %MON dynstat_sss_del2             =   0.0000000000000E+00
(PID.TID 0000.0001) %MON forcing_qnet_max             =   0.0000000000000E+00
(PID.TID 0000.0001) %MON forcing_qnet_min             =   0.0000000000000E+00
(PID.TID 0000.0001) %MON forcing_qnet_mean            =   0.0000000000000E+00
(PID.TID 0000.0001) %MON forcing_qnet_sd              =   0.0000000000000E+00
(PID.TID 0000.0001) %MON forcing_qnet_del2            =   0.0000000000000E+00
(PID.TID 0000.0001) %MON forcing_qsw_max              =   0.0000000000000E+00
(PID.TID 0000.0001) %MON forcing_qsw_min              =   0.0000000000000E+00
(PID.TID 0000.0001) %MON forcing_qsw_mean             =   0.0000000000000E+00
(PID.TID 0000.0001) %MON forcing_qsw_sd               =   0.0000000000000E+00
(PID.TID 0000.0001) %MON forcing_qsw_del2             =   0.0000000000000E+00
(PID.TID 0000.0001) %MON forcing_empmr_max            =   0.0000000000000E+00
(PID.TID 0000.0001) %MON forcing_empmr_min            =   0.0000000000000E+00
(PID.TID 0000.0001) %MON forcing_empmr_mean           =   0.0000000000000E+00
(PID.TID 0000.0001) %MON forcing_empmr_sd             =   0.0000000000000E+00
(PID.TID 0000.0001) %MON forcing_empmr_del2           =   0.0000000000000E+00
(PID.TID 0000.0001) %MON forcing_fu_max               =   0.0000000000000E+00
(PID.TID 0000.0001) %MON forcing_fu_min               =   0.0000000000000E+00
(PID.TID 0000.0001) %MON forcing_fu_mean              =   0.0000000000000E+00
(PID.TID 0000.0001) %MON forcing_fu_sd                =   0.0000000000000E+00
(PID.TID 0000.0001) %MON forcing_fu_del2              =   0.0000000000000E+00
(PID.TID 0000.0001) %MON forcing_fv_max               =   0.0000000000000E+00
(PID.TID 0000.0001) %MON forcing_fv_min               =   0.0000000000000E+00
(PID.TID 0000.0001) %MON forcing_fv_mean              =   0.0000000000000E+00
(PID.TID 0000.0001) %MON forcing_fv_sd                =   0.0000000000000E+00
(PID.TID 0000.0001) %MON forcing_fv_del2              =   0.0000000000000E+00
(PID.TID 0000.0001) %MON advcfl_uvel_max              =   0.0000000000000E+00
(PID.TID 0000.0001) %MON advcfl_vvel_max              =   0.0000000000000E+00
(PID.TID 0000.0001) %MON advcfl_wvel_max              =   0.0000000000000E+00
(PID.TID 0000.0001) %MON advcfl_W_hf_max              =   0.0000000000000E+00
(PID.TID 0000.0001) %MON pe_b_mean                    =   0.0000000000000E+00
(PID.TID 0000.0001) %MON ke_max                       =   0.0000000000000E+00
(PID.TID 0000.0001) %MON ke_mean                      =   0.0000000000000E+00
(PID.TID 0000.0001) %MON ke_vol                       =   4.1199767883485E+13
(PID.TID 0000.0001) %MON vort_r_min                   =   0.0000000000000E+00
(PID.TID 0000.0001) %MON vort_r_max                   =   0.0000000000000E+00
(PID.TID 0000.0001) %MON vort_a_mean                  =  -4.5067801836625E-05
(PID.TID 0000.0001) %MON vort_a_sd                    =  -4.1359030627651E-25
(PID.TID 0000.0001) %MON vort_p_mean                  =  -4.5067801836625E-05
(PID.TID 0000.0001) %MON vort_p_sd                    =   0.0000000000000E+00
(PID.TID 0000.0001) %MON surfExpan_theta_mean         =   0.0000000000000E+00
(PID.TID 0000.0001) %MON surfExpan_salt_mean          =   0.0000000000000E+00
(PID.TID 0000.0001) // =======================================================
(PID.TID 0000.0001) // End MONITOR dynamic field statistics
(PID.TID 0000.0001) // =======================================================
(PID.TID 0000.0001) // =======================================================
(PID.TID 0000.0001) // Begin MONITOR ptracer field statistics
(PID.TID 0000.0001) // =======================================================
(PID.TID 0000.0001) %MON trcstat_ptracer01_max        =   2.2436996440743E+00
(PID.TID 0000.0001) %MON trcstat_ptracer01_min        =   2.1025673538185E-01
(PID.TID 0000.0001) %MON trcstat_ptracer01_mean       =   1.5821341840030E+00
(PID.TID 0000.0001) %MON trcstat_ptracer01_sd         =   4.6734942565474E-01
(PID.TID 0000.0001) %MON trcstat_ptracer01_del2       =   0.0000000000000E+00
(PID.TID 0000.0001) %MON trcstat_ptracer02_max        =   3.3903492981311E+01
(PID.TID 0000.0001) %MON trcstat_ptracer02_min        =   4.6481966303685E-02
(PID.TID 0000.0001) %MON trcstat_ptracer02_mean       =   2.3502391566951E+01
(PID.TID 0000.0001) %MON trcstat_ptracer02_sd         =   7.8161962438133E+00
(PID.TID 0000.0001) %MON trcstat_ptracer02_del2       =   0.0000000000000E+00
(PID.TID 0000.0001) %MON trcstat_ptracer03_max        =   1.3005201648496E-03
(PID.TID 0000.0001) %MON trcstat_ptracer03_min        =   1.2999415676276E-03
(PID.TID 0000.0001) %MON trcstat_ptracer03_mean       =   1.2999436502158E-03
(PID.TID 0000.0001) %MON trcstat_ptracer03_sd         =   3.0894960169412E-08
(PID.TID 0000.0001) %MON trcstat_ptracer03_del2       =   0.0000000000000E+00
(PID.TID 0000.0001) %MON trcstat_ptracer04_max        =   3.9387400649807E+01
(PID.TID 0000.0001) %MON trcstat_ptracer04_min        =   1.2247959589139E+00
(PID.TID 0000.0001) %MON trcstat_ptracer04_mean       =   2.9621891104117E+01
(PID.TID 0000.0001) %MON trcstat_ptracer04_sd         =   1.1270581642263E+01
(PID.TID 0000.0001) %MON trcstat_ptracer04_del2       =   0.0000000000000E+00
(PID.TID 0000.0001) %MON trcstat_ptracer05_max        =   5.1108385272097E-03
(PID.TID 0000.0001) %MON trcstat_ptracer05_min        =   6.3044108753353E-34
(PID.TID 0000.0001) %MON trcstat_ptracer05_mean       =   2.1455888378994E-04
(PID.TID 0000.0001) %MON trcstat_ptracer05_sd         =   9.2377433673399E-04
(PID.TID 0000.0001) %MON trcstat_ptracer05_del2       =   0.0000000000000E+00
(PID.TID 0000.0001) %MON trcstat_ptracer06_max        =   8.1773416435356E-02
(PID.TID 0000.0001) %MON trcstat_ptracer06_min        =   1.0087057400537E-32
(PID.TID 0000.0001) %MON trcstat_ptracer06_mean       =   3.4329421406391E-03
(PID.TID 0000.0001) %MON trcstat_ptracer06_sd         =   1.4780389387744E-02
(PID.TID 0000.0001) %MON trcstat_ptracer06_del2       =   0.0000000000000E+00
(PID.TID 0000.0001) %MON trcstat_ptracer07_max        =   5.1108381688390E-06
(PID.TID 0000.0001) %MON trcstat_ptracer07_min        =   6.3044014076821E-37
(PID.TID 0000.0001) %MON trcstat_ptracer07_mean       =   2.1455888409594E-07
(PID.TID 0000.0001) %MON trcstat_ptracer07_sd         =   9.2377433639229E-07
(PID.TID 0000.0001) %MON trcstat_ptracer07_del2       =   0.0000000000000E+00
(PID.TID 0000.0001) %MON trcstat_ptracer08_max        =   1.0304421785702E-09
(PID.TID 0000.0001) %MON trcstat_ptracer08_min        =   8.0449423880902E-36
(PID.TID 0000.0001) %MON trcstat_ptracer08_mean       =   1.3626376391338E-10
(PID.TID 0000.0001) %MON trcstat_ptracer08_sd         =   2.4923703850984E-10
(PID.TID 0000.0001) %MON trcstat_ptracer08_del2       =   0.0000000000000E+00
(PID.TID 0000.0001) %MON trcstat_ptracer09_max        =   1.6487074857123E-08
(PID.TID 0000.0001) %MON trcstat_ptracer09_min        =   1.2871907820944E-34
(PID.TID 0000.0001) %MON trcstat_ptracer09_mean       =   2.1802202226140E-09
(PID.TID 0000.0001) %MON trcstat_ptracer09_sd         =   3.9877926161574E-09
(PID.TID 0000.0001) %MON trcstat_ptracer09_del2       =   0.0000000000000E+00
(PID.TID 0000.0001) %MON trcstat_ptracer10_max        =   1.0304421432142E-12
(PID.TID 0000.0001) %MON trcstat_ptracer10_min        =   8.0449418105181E-39
(PID.TID 0000.0001) %MON trcstat_ptracer10_mean       =   1.3626375491987E-13
(PID.TID 0000.0001) %MON trcstat_ptracer10_sd         =   2.4923702429510E-13
(PID.TID 0000.0001) %MON trcstat_ptracer10_del2       =   0.0000000000000E+00
(PID.TID 0000.0001) %MON trcstat_ptracer11_max        =   4.2307901168645E-09
(PID.TID 0000.0001) %MON trcstat_ptracer11_min        =   4.7393941114571E-35
(PID.TID 0000.0001) %MON trcstat_ptracer11_mean       =   5.1285484591626E-10
(PID.TID 0000.0001) %MON trcstat_ptracer11_sd         =   1.0321180551265E-09
(PID.TID 0000.0001) %MON trcstat_ptracer11_del2       =   0.0000000000000E+00
(PID.TID 0000.0001) %MON trcstat_ptracer12_max        =   1.0304652515257E-09
(PID.TID 0000.0001) %MON trcstat_ptracer12_min        =   8.0449423880924E-36
(PID.TID 0000.0001) %MON trcstat_ptracer12_mean       =   1.3626442003760E-10
(PID.TID 0000.0001) %MON trcstat_ptracer12_sd         =   2.4923923756076E-10
(PID.TID 0000.0001) %MON trcstat_ptracer12_del2       =   0.0000000000000E+00
(PID.TID 0000.0001) %MON trcstat_ptracer13_max        =   1.6487444024412E-08
(PID.TID 0000.0001) %MON trcstat_ptracer13_min        =   1.2871907820948E-34
(PID.TID 0000.0001) %MON trcstat_ptracer13_mean       =   2.1802307206016E-09
(PID.TID 0000.0001) %MON trcstat_ptracer13_sd         =   3.9878278009722E-09
(PID.TID 0000.0001) %MON trcstat_ptracer13_del2       =   0.0000000000000E+00
(PID.TID 0000.0001) %MON trcstat_ptracer14_max        =   1.0304652161697E-12
(PID.TID 0000.0001) %MON trcstat_ptracer14_min        =   8.0449418105203E-39
(PID.TID 0000.0001) %MON trcstat_ptracer14_mean       =   1.3626441104409E-13
(PID.TID 0000.0001) %MON trcstat_ptracer14_sd         =   2.4923922334616E-13
(PID.TID 0000.0001) %MON trcstat_ptracer14_del2       =   0.0000000000000E+00
(PID.TID 0000.0001) %MON trcstat_ptracer15_max        =   4.2307901173272E-09
(PID.TID 0000.0001) %MON trcstat_ptracer15_min        =   4.7393941114622E-35
(PID.TID 0000.0001) %MON trcstat_ptracer15_mean       =   5.1287197710316E-10
(PID.TID 0000.0001) %MON trcstat_ptracer15_sd         =   1.0321095476786E-09
(PID.TID 0000.0001) %MON trcstat_ptracer15_del2       =   0.0000000000000E+00
(PID.TID 0000.0001) %MON trcstat_ptracer16_max        =   2.7152518301851E-04
(PID.TID 0000.0001) %MON trcstat_ptracer16_min        =   1.1768726465650E-06
(PID.TID 0000.0001) %MON trcstat_ptracer16_mean       =   7.8771664429271E-05
(PID.TID 0000.0001) %MON trcstat_ptracer16_sd         =   9.6358595657627E-05
(PID.TID 0000.0001) %MON trcstat_ptracer16_del2       =   0.0000000000000E+00
(PID.TID 0000.0001) %MON trcstat_ptracer17_max        =   4.3444029282961E-03
(PID.TID 0000.0001) %MON trcstat_ptracer17_min        =   1.8829962345039E-05
(PID.TID 0000.0001) %MON trcstat_ptracer17_mean       =   1.2603466308683E-03
(PID.TID 0000.0001) %MON trcstat_ptracer17_sd         =   1.5417375305220E-03
(PID.TID 0000.0001) %MON trcstat_ptracer17_del2       =   0.0000000000000E+00
(PID.TID 0000.0001) %MON trcstat_ptracer18_max        =   2.7152519897930E-07
(PID.TID 0000.0001) %MON trcstat_ptracer18_min        =   1.1768725182750E-09
(PID.TID 0000.0001) %MON trcstat_ptracer18_mean       =   7.8771664954137E-08
(PID.TID 0000.0001) %MON trcstat_ptracer18_sd         =   9.6358597711710E-08
(PID.TID 0000.0001) %MON trcstat_ptracer18_del2       =   0.0000000000000E+00
(PID.TID 0000.0001) %MON trcstat_ptracer19_max        =   1.6239075643479E-02
(PID.TID 0000.0001) %MON trcstat_ptracer19_min        =   1.1401897530467E-03
(PID.TID 0000.0001) %MON trcstat_ptracer19_mean       =   5.4875256313612E-03
(PID.TID 0000.0001) %MON trcstat_ptracer19_sd         =   5.1667191706734E-03
(PID.TID 0000.0001) %MON trcstat_ptracer19_del2       =   0.0000000000000E+00
(PID.TID 0000.0001) %MON trcstat_ptracer20_max        =   2.5666848956919E-02
(PID.TID 0000.0001) %MON trcstat_ptracer20_min        =   1.8771465384296E-07
(PID.TID 0000.0001) %MON trcstat_ptracer20_mean       =   6.0896967743306E-04
(PID.TID 0000.0001) %MON trcstat_ptracer20_sd         =   3.2601424975028E-03
(PID.TID 0000.0001) %MON trcstat_ptracer20_del2       =   0.0000000000000E+00
(PID.TID 0000.0001) %MON trcstat_ptracer21_max        =   1.8245573960343E-02
(PID.TID 0000.0001) %MON trcstat_ptracer21_min        =   3.8775807092714E-06
(PID.TID 0000.0001) %MON trcstat_ptracer21_mean       =   6.0455380062207E-04
(PID.TID 0000.0001) %MON trcstat_ptracer21_sd         =   1.9421139270876E-03
(PID.TID 0000.0001) %MON trcstat_ptracer21_del2       =   0.0000000000000E+00
(PID.TID 0000.0001) %MON trcstat_ptracer22_max        =   7.2236554220425E-06
(PID.TID 0000.0001) %MON trcstat_ptracer22_min        =   1.4160604848341E-29
(PID.TID 0000.0001) %MON trcstat_ptracer22_mean       =   2.1578077745963E-07
(PID.TID 0000.0001) %MON trcstat_ptracer22_sd         =   1.1290972127961E-06
(PID.TID 0000.0001) %MON trcstat_ptracer22_del2       =   0.0000000000000E+00
(PID.TID 0000.0001) %MON trcstat_ptracer23_max        =   7.3841210561308E-06
(PID.TID 0000.0001) %MON trcstat_ptracer23_min        =   1.1449875060247E-37
(PID.TID 0000.0001) %MON trcstat_ptracer23_mean       =   2.1987642573911E-07
(PID.TID 0000.0001) %MON trcstat_ptracer23_sd         =   1.1547029952401E-06
(PID.TID 0000.0001) %MON trcstat_ptracer23_del2       =   0.0000000000000E+00
(PID.TID 0000.0001) %MON trcstat_ptracer24_max        =   7.2236554220437E-06
(PID.TID 0000.0001) %MON trcstat_ptracer24_min        =   1.4160604848341E-29
(PID.TID 0000.0001) %MON trcstat_ptracer24_mean       =   2.1541290472993E-07
(PID.TID 0000.0001) %MON trcstat_ptracer24_sd         =   1.1287740039809E-06
(PID.TID 0000.0001) %MON trcstat_ptracer24_del2       =   0.0000000000000E+00
(PID.TID 0000.0001) %MON trcstat_ptracer25_max        =   7.5040958116958E-06
(PID.TID 0000.0001) %MON trcstat_ptracer25_min        =   1.4160604848341E-29
(PID.TID 0000.0001) %MON trcstat_ptracer25_mean       =   2.2379518131876E-07
(PID.TID 0000.0001) %MON trcstat_ptracer25_sd         =   1.1716570900425E-06
(PID.TID 0000.0001) %MON trcstat_ptracer25_del2       =   0.0000000000000E+00
(PID.TID 0000.0001) %MON trcstat_ptracer26_max        =   7.4676935819817E-06
(PID.TID 0000.0001) %MON trcstat_ptracer26_min        =   1.1449875060247E-37
(PID.TID 0000.0001) %MON trcstat_ptracer26_mean       =   2.2218625964962E-07
(PID.TID 0000.0001) %MON trcstat_ptracer26_sd         =   1.1666870553944E-06
(PID.TID 0000.0001) %MON trcstat_ptracer26_del2       =   0.0000000000000E+00
(PID.TID 0000.0001) %MON trcstat_ptracer27_max        =   7.2242642740648E-06
(PID.TID 0000.0001) %MON trcstat_ptracer27_min        =   1.1449875060247E-37
(PID.TID 0000.0001) %MON trcstat_ptracer27_mean       =   2.1541292263538E-07
(PID.TID 0000.0001) %MON trcstat_ptracer27_sd         =   1.1293476805827E-06
(PID.TID 0000.0001) %MON trcstat_ptracer27_del2       =   0.0000000000000E+00
(PID.TID 0000.0001) %MON trcstat_ptracer28_max        =   7.3651490990954E-06
(PID.TID 0000.0001) %MON trcstat_ptracer28_min        =   1.1449875060247E-37
(PID.TID 0000.0001) %MON trcstat_ptracer28_mean       =   2.1931858177813E-07
(PID.TID 0000.0001) %MON trcstat_ptracer28_sd         =   1.1512548014036E-06
(PID.TID 0000.0001) %MON trcstat_ptracer28_del2       =   0.0000000000000E+00
(PID.TID 0000.0001) %MON trcstat_ptracer29_max        =   7.2242642740627E-06
(PID.TID 0000.0001) %MON trcstat_ptracer29_min        =   1.1449875060247E-37
(PID.TID 0000.0001) %MON trcstat_ptracer29_mean       =   2.1558973213669E-07
(PID.TID 0000.0001) %MON trcstat_ptracer29_sd         =   1.1300147821430E-06
(PID.TID 0000.0001) %MON trcstat_ptracer29_del2       =   0.0000000000000E+00
(PID.TID 0000.0001) %MON trcstat_ptracer30_max        =   7.2795720016318E-06
(PID.TID 0000.0001) %MON trcstat_ptracer30_min        =   1.1449875060247E-37
(PID.TID 0000.0001) %MON trcstat_ptracer30_mean       =   2.1796698640413E-07
(PID.TID 0000.0001) %MON trcstat_ptracer30_sd         =   1.1403843760997E-06
(PID.TID 0000.0001) %MON trcstat_ptracer30_del2       =   0.0000000000000E+00
(PID.TID 0000.0001) %MON trcstat_ptracer31_max        =   7.5159401889178E-06
(PID.TID 0000.0001) %MON trcstat_ptracer31_min        =   1.1449875060247E-37
(PID.TID 0000.0001) %MON trcstat_ptracer31_mean       =   2.2367768680075E-07
(PID.TID 0000.0001) %MON trcstat_ptracer31_sd         =   1.1744068579545E-06
(PID.TID 0000.0001) %MON trcstat_ptracer31_del2       =   0.0000000000000E+00
(PID.TID 0000.0001) %MON trcstat_ptracer32_max        =   7.2242642740692E-06
(PID.TID 0000.0001) %MON trcstat_ptracer32_min        =   1.1449875060247E-37
(PID.TID 0000.0001) %MON trcstat_ptracer32_mean       =   2.1541290466739E-07
(PID.TID 0000.0001) %MON trcstat_ptracer32_sd         =   1.1293476836555E-06
(PID.TID 0000.0001) %MON trcstat_ptracer32_del2       =   0.0000000000000E+00
(PID.TID 0000.0001) %MON trcstat_ptracer33_max        =   7.2242642740617E-06
(PID.TID 0000.0001) %MON trcstat_ptracer33_min        =   1.1449875060247E-37
(PID.TID 0000.0001) %MON trcstat_ptracer33_mean       =   2.1541290466716E-07
(PID.TID 0000.0001) %MON trcstat_ptracer33_sd         =   1.1293476836544E-06
(PID.TID 0000.0001) %MON trcstat_ptracer33_del2       =   0.0000000000000E+00
(PID.TID 0000.0001) %MON trcstat_ptracer34_max        =   7.2236554198050E-06
(PID.TID 0000.0001) %MON trcstat_ptracer34_min        =   1.4160604848340E-29
(PID.TID 0000.0001) %MON trcstat_ptracer34_mean       =   2.1541344768986E-07
(PID.TID 0000.0001) %MON trcstat_ptracer34_sd         =   1.1287739029430E-06
(PID.TID 0000.0001) %MON trcstat_ptracer34_del2       =   0.0000000000000E+00
(PID.TID 0000.0001) %MON trcstat_ptracer35_max        =   7.2242642740626E-06
(PID.TID 0000.0001) %MON trcstat_ptracer35_min        =   1.1449875060247E-37
(PID.TID 0000.0001) %MON trcstat_ptracer35_mean       =   2.1541290466720E-07
(PID.TID 0000.0001) %MON trcstat_ptracer35_sd         =   1.1293476836546E-06
(PID.TID 0000.0001) %MON trcstat_ptracer35_del2       =   0.0000000000000E+00
(PID.TID 0000.0001) %MON trcstat_ptracer36_max        =   7.5604754849327E-06
(PID.TID 0000.0001) %MON trcstat_ptracer36_min        =   1.1449875060247E-37
(PID.TID 0000.0001) %MON trcstat_ptracer36_mean       =   2.2499004797061E-07
(PID.TID 0000.0001) %MON trcstat_ptracer36_sd         =   1.1813199117469E-06
(PID.TID 0000.0001) %MON trcstat_ptracer36_del2       =   0.0000000000000E+00
(PID.TID 0000.0001) %MON trcstat_ptracer37_max        =   7.2236554220444E-06
(PID.TID 0000.0001) %MON trcstat_ptracer37_min        =   1.4160604848341E-29
(PID.TID 0000.0001) %MON trcstat_ptracer37_mean       =   2.1542124551185E-07
(PID.TID 0000.0001) %MON trcstat_ptracer37_sd         =   1.1287727302614E-06
(PID.TID 0000.0001) %MON trcstat_ptracer37_del2       =   0.0000000000000E+00
(PID.TID 0000.0001) %MON trcstat_ptracer38_max        =   7.2236554220444E-06
(PID.TID 0000.0001) %MON trcstat_ptracer38_min        =   1.4160604848341E-29
(PID.TID 0000.0001) %MON trcstat_ptracer38_mean       =   2.1541290472995E-07
(PID.TID 0000.0001) %MON trcstat_ptracer38_sd         =   1.1287740039810E-06
(PID.TID 0000.0001) %MON trcstat_ptracer38_del2       =   0.0000000000000E+00
(PID.TID 0000.0001) %MON trcstat_ptracer39_max        =   7.2242642740698E-06
(PID.TID 0000.0001) %MON trcstat_ptracer39_min        =   1.1449875060247E-37
(PID.TID 0000.0001) %MON trcstat_ptracer39_mean       =   2.1541290466741E-07
(PID.TID 0000.0001) %MON trcstat_ptracer39_sd         =   1.1293476836556E-06
(PID.TID 0000.0001) %MON trcstat_ptracer39_del2       =   0.0000000000000E+00
(PID.TID 0000.0001) %MON trcstat_ptracer40_max        =   7.3637786070457E-06
(PID.TID 0000.0001) %MON trcstat_ptracer40_min        =   1.4160604848341E-29
(PID.TID 0000.0001) %MON trcstat_ptracer40_mean       =   2.1993447394256E-07
(PID.TID 0000.0001) %MON trcstat_ptracer40_sd         =   1.1506207807505E-06
(PID.TID 0000.0001) %MON trcstat_ptracer40_del2       =   0.0000000000000E+00
(PID.TID 0000.0001) %MON trcstat_ptracer41_max        =   7.2236554198064E-06
(PID.TID 0000.0001) %MON trcstat_ptracer41_min        =   1.4160604848340E-29
(PID.TID 0000.0001) %MON trcstat_ptracer41_mean       =   2.1541290577518E-07
(PID.TID 0000.0001) %MON trcstat_ptracer41_sd         =   1.1287740034330E-06
(PID.TID 0000.0001) %MON trcstat_ptracer41_del2       =   0.0000000000000E+00
(PID.TID 0000.0001) %MON trcstat_ptracer42_max        =   7.2714755680411E-06
(PID.TID 0000.0001) %MON trcstat_ptracer42_min        =   1.4160604848340E-29
(PID.TID 0000.0001) %MON trcstat_ptracer42_mean       =   2.1790633330180E-07
(PID.TID 0000.0001) %MON trcstat_ptracer42_sd         =   1.1387774975049E-06
(PID.TID 0000.0001) %MON trcstat_ptracer42_del2       =   0.0000000000000E+00
(PID.TID 0000.0001) %MON trcstat_ptracer43_max        =   7.5585463510740E-06
(PID.TID 0000.0001) %MON trcstat_ptracer43_min        =   1.4160604848341E-29
(PID.TID 0000.0001) %MON trcstat_ptracer43_mean       =   2.2540354650167E-07
(PID.TID 0000.0001) %MON trcstat_ptracer43_sd         =   1.1815719465459E-06
(PID.TID 0000.0001) %MON trcstat_ptracer43_del2       =   0.0000000000000E+00
(PID.TID 0000.0001) %MON trcstat_ptracer44_max        =   7.2242642740642E-06
(PID.TID 0000.0001) %MON trcstat_ptracer44_min        =   1.1449875060247E-37
(PID.TID 0000.0001) %MON trcstat_ptracer44_mean       =   2.1541292051126E-07
(PID.TID 0000.0001) %MON trcstat_ptracer44_sd         =   1.1293476812630E-06
(PID.TID 0000.0001) %MON trcstat_ptracer44_del2       =   0.0000000000000E+00
(PID.TID 0000.0001) %MON trcstat_ptracer45_max        =   7.2236554198036E-06
(PID.TID 0000.0001) %MON trcstat_ptracer45_min        =   1.4160604848340E-29
(PID.TID 0000.0001) %MON trcstat_ptracer45_mean       =   2.1541290466733E-07
(PID.TID 0000.0001) %MON trcstat_ptracer45_sd         =   1.1287740036440E-06
(PID.TID 0000.0001) %MON trcstat_ptracer45_del2       =   0.0000000000000E+00
(PID.TID 0000.0001) %MON trcstat_ptracer46_max        =   7.2242642740621E-06
(PID.TID 0000.0001) %MON trcstat_ptracer46_min        =   1.1449875060247E-37
(PID.TID 0000.0001) %MON trcstat_ptracer46_mean       =   2.1541291382944E-07
(PID.TID 0000.0001) %MON trcstat_ptracer46_sd         =   1.1293476822273E-06
(PID.TID 0000.0001) %MON trcstat_ptracer46_del2       =   0.0000000000000E+00
(PID.TID 0000.0001) %MON trcstat_ptracer47_max        =   7.2242642740615E-06
(PID.TID 0000.0001) %MON trcstat_ptracer47_min        =   1.1449875060247E-37
(PID.TID 0000.0001) %MON trcstat_ptracer47_mean       =   2.1541290466715E-07
(PID.TID 0000.0001) %MON trcstat_ptracer47_sd         =   1.1293476836544E-06
(PID.TID 0000.0001) %MON trcstat_ptracer47_del2       =   0.0000000000000E+00
(PID.TID 0000.0001) %MON trcstat_ptracer48_max        =   7.2242642740625E-06
(PID.TID 0000.0001) %MON trcstat_ptracer48_min        =   1.1449875060247E-37
(PID.TID 0000.0001) %MON trcstat_ptracer48_mean       =   2.1541290466720E-07
(PID.TID 0000.0001) %MON trcstat_ptracer48_sd         =   1.1293476836546E-06
(PID.TID 0000.0001) %MON trcstat_ptracer48_del2       =   0.0000000000000E+00
(PID.TID 0000.0001) %MON trcstat_ptracer49_max        =   7.2242642740624E-06
(PID.TID 0000.0001) %MON trcstat_ptracer49_min        =   1.1449875060247E-37
(PID.TID 0000.0001) %MON trcstat_ptracer49_mean       =   2.1541290466720E-07
(PID.TID 0000.0001) %MON trcstat_ptracer49_sd         =   1.1293476836546E-06
(PID.TID 0000.0001) %MON trcstat_ptracer49_del2       =   0.0000000000000E+00
(PID.TID 0000.0001) %MON trcstat_ptracer50_max        =   7.5376901863338E-06
(PID.TID 0000.0001) %MON trcstat_ptracer50_min        =   1.4160604848340E-29
(PID.TID 0000.0001) %MON trcstat_ptracer50_mean       =   2.2453911617869E-07
(PID.TID 0000.0001) %MON trcstat_ptracer50_sd         =   1.1777031922113E-06
(PID.TID 0000.0001) %MON trcstat_ptracer50_del2       =   0.0000000000000E+00
(PID.TID 0000.0001) %MON trcstat_ptracer51_max        =   7.2242642740713E-06
(PID.TID 0000.0001) %MON trcstat_ptracer51_min        =   1.1449875060247E-37
(PID.TID 0000.0001) %MON trcstat_ptracer51_mean       =   2.1541290466746E-07
(PID.TID 0000.0001) %MON trcstat_ptracer51_sd         =   1.1293476836559E-06
(PID.TID 0000.0001) %MON trcstat_ptracer51_del2       =   0.0000000000000E+00
(PID.TID 0000.0001) %MON trcstat_ptracer52_max        =   7.5473296585613E-06
(PID.TID 0000.0001) %MON trcstat_ptracer52_min        =   1.4160604848340E-29
(PID.TID 0000.0001) %MON trcstat_ptracer52_mean       =   2.2436176295844E-07
(PID.TID 0000.0001) %MON trcstat_ptracer52_sd         =   1.1783496375865E-06
(PID.TID 0000.0001) %MON trcstat_ptracer52_del2       =   0.0000000000000E+00
(PID.TID 0000.0001) %MON trcstat_ptracer53_max        =   7.5539207015251E-06
(PID.TID 0000.0001) %MON trcstat_ptracer53_min        =   1.1449875060247E-37
(PID.TID 0000.0001) %MON trcstat_ptracer53_mean       =   2.2482287870036E-07
(PID.TID 0000.0001) %MON trcstat_ptracer53_sd         =   1.1796532111056E-06
(PID.TID 0000.0001) %MON trcstat_ptracer53_del2       =   0.0000000000000E+00
(PID.TID 0000.0001) %MON trcstat_ptracer54_max        =   7.3968749603174E-06
(PID.TID 0000.0001) %MON trcstat_ptracer54_min        =   1.4160604848340E-29
(PID.TID 0000.0001) %MON trcstat_ptracer54_mean       =   2.2073261004945E-07
(PID.TID 0000.0001) %MON trcstat_ptracer54_sd         =   1.1551021050219E-06
(PID.TID 0000.0001) %MON trcstat_ptracer54_del2       =   0.0000000000000E+00
(PID.TID 0000.0001) %MON trcstat_ptracer55_max        =   7.4510941809565E-06
(PID.TID 0000.0001) %MON trcstat_ptracer55_min        =   1.1449875060247E-37
(PID.TID 0000.0001) %MON trcstat_ptracer55_mean       =   2.2130392640049E-07
(PID.TID 0000.0001) %MON trcstat_ptracer55_sd         =   1.1629403608528E-06
(PID.TID 0000.0001) %MON trcstat_ptracer55_del2       =   0.0000000000000E+00
(PID.TID 0000.0001) %MON trcstat_ptracer56_max        =   7.2242642740666E-06
(PID.TID 0000.0001) %MON trcstat_ptracer56_min        =   1.1449875060247E-37
(PID.TID 0000.0001) %MON trcstat_ptracer56_mean       =   2.1541290466732E-07
(PID.TID 0000.0001) %MON trcstat_ptracer56_sd         =   1.1293476836551E-06
(PID.TID 0000.0001) %MON trcstat_ptracer56_del2       =   0.0000000000000E+00
(PID.TID 0000.0001) %MON trcstat_ptracer57_max        =   7.2236554220403E-06
(PID.TID 0000.0001) %MON trcstat_ptracer57_min        =   1.4160604848341E-29
(PID.TID 0000.0001) %MON trcstat_ptracer57_mean       =   2.1541290472983E-07
(PID.TID 0000.0001) %MON trcstat_ptracer57_sd         =   1.1287740039804E-06
(PID.TID 0000.0001) %MON trcstat_ptracer57_del2       =   0.0000000000000E+00
(PID.TID 0000.0001) %MON trcstat_ptracer58_max        =   7.2242642740655E-06
(PID.TID 0000.0001) %MON trcstat_ptracer58_min        =   1.1449875060247E-37
(PID.TID 0000.0001) %MON trcstat_ptracer58_mean       =   2.1541290466729E-07
(PID.TID 0000.0001) %MON trcstat_ptracer58_sd         =   1.1293476836550E-06
(PID.TID 0000.0001) %MON trcstat_ptracer58_del2       =   0.0000000000000E+00
(PID.TID 0000.0001) %MON trcstat_ptracer59_max        =   7.2242642740717E-06
(PID.TID 0000.0001) %MON trcstat_ptracer59_min        =   1.1449875060247E-37
(PID.TID 0000.0001) %MON trcstat_ptracer59_mean       =   2.1541290466747E-07
(PID.TID 0000.0001) %MON trcstat_ptracer59_sd         =   1.1293476836559E-06
(PID.TID 0000.0001) %MON trcstat_ptracer59_del2       =   0.0000000000000E+00
(PID.TID 0000.0001) %MON trcstat_ptracer60_max        =   7.2242642740683E-06
(PID.TID 0000.0001) %MON trcstat_ptracer60_min        =   1.1449875060247E-37
(PID.TID 0000.0001) %MON trcstat_ptracer60_mean       =   2.1541290466737E-07
(PID.TID 0000.0001) %MON trcstat_ptracer60_sd         =   1.1293476836554E-06
(PID.TID 0000.0001) %MON trcstat_ptracer60_del2       =   0.0000000000000E+00
(PID.TID 0000.0001) %MON trcstat_ptracer61_max        =   7.2236554220444E-06
(PID.TID 0000.0001) %MON trcstat_ptracer61_min        =   1.4160604848341E-29
(PID.TID 0000.0001) %MON trcstat_ptracer61_mean       =   2.1542103904795E-07
(PID.TID 0000.0001) %MON trcstat_ptracer61_sd         =   1.1287727606246E-06
(PID.TID 0000.0001) %MON trcstat_ptracer61_del2       =   0.0000000000000E+00
(PID.TID 0000.0001) %MON trcstat_ptracer62_max        =   7.2242642740644E-06
(PID.TID 0000.0001) %MON trcstat_ptracer62_min        =   1.1449875060247E-37
(PID.TID 0000.0001) %MON trcstat_ptracer62_mean       =   2.1542583500682E-07
(PID.TID 0000.0001) %MON trcstat_ptracer62_sd         =   1.1293458674601E-06
(PID.TID 0000.0001) %MON trcstat_ptracer62_del2       =   0.0000000000000E+00
(PID.TID 0000.0001) %MON trcstat_ptracer63_max        =   7.2236554198058E-06
(PID.TID 0000.0001) %MON trcstat_ptracer63_min        =   1.4160604848340E-29
(PID.TID 0000.0001) %MON trcstat_ptracer63_mean       =   2.1542959702016E-07
(PID.TID 0000.0001) %MON trcstat_ptracer63_sd         =   1.1287715784424E-06
(PID.TID 0000.0001) %MON trcstat_ptracer63_del2       =   0.0000000000000E+00
(PID.TID 0000.0001) %MON trcstat_ptracer64_max        =   7.2242642740716E-06
(PID.TID 0000.0001) %MON trcstat_ptracer64_min        =   1.1449875060247E-37
(PID.TID 0000.0001) %MON trcstat_ptracer64_mean       =   2.1572607484836E-07
(PID.TID 0000.0001) %MON trcstat_ptracer64_sd         =   1.1295868453152E-06
(PID.TID 0000.0001) %MON trcstat_ptracer64_del2       =   0.0000000000000E+00
(PID.TID 0000.0001) %MON trcstat_ptracer65_max        =   7.2236554198037E-06
(PID.TID 0000.0001) %MON trcstat_ptracer65_min        =   1.4160604848340E-29
(PID.TID 0000.0001) %MON trcstat_ptracer65_mean       =   2.1541290526914E-07
(PID.TID 0000.0001) %MON trcstat_ptracer65_sd         =   1.1287740035292E-06
(PID.TID 0000.0001) %MON trcstat_ptracer65_del2       =   0.0000000000000E+00
(PID.TID 0000.0001) %MON trcstat_ptracer66_max        =   7.3562334030771E-06
(PID.TID 0000.0001) %MON trcstat_ptracer66_min        =   1.1449875060247E-37
(PID.TID 0000.0001) %MON trcstat_ptracer66_mean       =   2.1850702108468E-07
(PID.TID 0000.0001) %MON trcstat_ptracer66_sd         =   1.1479441129043E-06
(PID.TID 0000.0001) %MON trcstat_ptracer66_del2       =   0.0000000000000E+00
(PID.TID 0000.0001) %MON trcstat_ptracer67_max        =   7.5511222356703E-06
(PID.TID 0000.0001) %MON trcstat_ptracer67_min        =   1.4160604848340E-29
(PID.TID 0000.0001) %MON trcstat_ptracer67_mean       =   2.2480517262207E-07
(PID.TID 0000.0001) %MON trcstat_ptracer67_sd         =   1.1799106765378E-06
(PID.TID 0000.0001) %MON trcstat_ptracer67_del2       =   0.0000000000000E+00
(PID.TID 0000.0001) %MON trcstat_ptracer68_max        =   7.2236554198071E-06
(PID.TID 0000.0001) %MON trcstat_ptracer68_min        =   1.4160604848340E-29
(PID.TID 0000.0001) %MON trcstat_ptracer68_mean       =   2.1541290466744E-07
(PID.TID 0000.0001) %MON trcstat_ptracer68_sd         =   1.1287740036445E-06
(PID.TID 0000.0001) %MON trcstat_ptracer68_del2       =   0.0000000000000E+00
(PID.TID 0000.0001) %MON trcstat_ptracer69_max        =   7.2236554198065E-06
(PID.TID 0000.0001) %MON trcstat_ptracer69_min        =   1.4160604848340E-29
(PID.TID 0000.0001) %MON trcstat_ptracer69_mean       =   2.1541743957763E-07
(PID.TID 0000.0001) %MON trcstat_ptracer69_sd         =   1.1287732654927E-06
(PID.TID 0000.0001) %MON trcstat_ptracer69_del2       =   0.0000000000000E+00
(PID.TID 0000.0001) %MON trcstat_ptracer70_max        =   7.2236554198055E-06
(PID.TID 0000.0001) %MON trcstat_ptracer70_min        =   1.4160604848340E-29
(PID.TID 0000.0001) %MON trcstat_ptracer70_mean       =   2.1541290466739E-07
(PID.TID 0000.0001) %MON trcstat_ptracer70_sd         =   1.1287740036443E-06
(PID.TID 0000.0001) %MON trcstat_ptracer70_del2       =   0.0000000000000E+00
(PID.TID 0000.0001) %MON trcstat_ptracer71_max        =   7.4169060221453E-06
(PID.TID 0000.0001) %MON trcstat_ptracer71_min        =   1.1449875060247E-37
(PID.TID 0000.0001) %MON trcstat_ptracer71_mean       =   2.2139236514845E-07
(PID.TID 0000.0001) %MON trcstat_ptracer71_sd         =   1.1598522823079E-06
(PID.TID 0000.0001) %MON trcstat_ptracer71_del2       =   0.0000000000000E+00
(PID.TID 0000.0001) %MON trcstat_ptracer72_max        =   7.2242642740728E-06
(PID.TID 0000.0001) %MON trcstat_ptracer72_min        =   1.1449875060247E-37
(PID.TID 0000.0001) %MON trcstat_ptracer72_mean       =   2.1541290466750E-07
(PID.TID 0000.0001) %MON trcstat_ptracer72_sd         =   1.1293476836561E-06
(PID.TID 0000.0001) %MON trcstat_ptracer72_del2       =   0.0000000000000E+00
(PID.TID 0000.0001) %MON trcstat_ptracer73_max        =   7.2236554220441E-06
(PID.TID 0000.0001) %MON trcstat_ptracer73_min        =   1.4160604848341E-29
(PID.TID 0000.0001) %MON trcstat_ptracer73_mean       =   2.1541524087419E-07
(PID.TID 0000.0001) %MON trcstat_ptracer73_sd         =   1.1287736170066E-06
(PID.TID 0000.0001) %MON trcstat_ptracer73_del2       =   0.0000000000000E+00
(PID.TID 0000.0001) %MON trcstat_ptracer74_max        =   7.2236554220423E-06
(PID.TID 0000.0001) %MON trcstat_ptracer74_min        =   1.4160604848341E-29
(PID.TID 0000.0001) %MON trcstat_ptracer74_mean       =   2.1543218056759E-07
(PID.TID 0000.0001) %MON trcstat_ptracer74_sd         =   1.1287712644206E-06
(PID.TID 0000.0001) %MON trcstat_ptracer74_del2       =   0.0000000000000E+00
(PID.TID 0000.0001) %MON trcstat_ptracer75_max        =   7.2236554198037E-06
(PID.TID 0000.0001) %MON trcstat_ptracer75_min        =   1.4160604848340E-29
(PID.TID 0000.0001) %MON trcstat_ptracer75_mean       =   2.1541290466733E-07
(PID.TID 0000.0001) %MON trcstat_ptracer75_sd         =   1.1287740036440E-06
(PID.TID 0000.0001) %MON trcstat_ptracer75_del2       =   0.0000000000000E+00
(PID.TID 0000.0001) %MON trcstat_ptracer76_max        =   7.5592319408701E-06
(PID.TID 0000.0001) %MON trcstat_ptracer76_min        =   1.4160604848340E-29
(PID.TID 0000.0001) %MON trcstat_ptracer76_mean       =   2.2542282920525E-07
(PID.TID 0000.0001) %MON trcstat_ptracer76_sd         =   1.1817887158500E-06
(PID.TID 0000.0001) %MON trcstat_ptracer76_del2       =   0.0000000000000E+00
(PID.TID 0000.0001) %MON trcstat_ptracer77_max        =   7.2236554220441E-06
(PID.TID 0000.0001) %MON trcstat_ptracer77_min        =   1.4160604848341E-29
(PID.TID 0000.0001) %MON trcstat_ptracer77_mean       =   2.1541290472994E-07
(PID.TID 0000.0001) %MON trcstat_ptracer77_sd         =   1.1287740039810E-06
(PID.TID 0000.0001) %MON trcstat_ptracer77_del2       =   0.0000000000000E+00
(PID.TID 0000.0001) %MON trcstat_ptracer78_max        =   7.5497364650406E-06
(PID.TID 0000.0001) %MON trcstat_ptracer78_min        =   1.4160604848340E-29
(PID.TID 0000.0001) %MON trcstat_ptracer78_mean       =   2.2409742814977E-07
(PID.TID 0000.0001) %MON trcstat_ptracer78_sd         =   1.1778851582303E-06
(PID.TID 0000.0001) %MON trcstat_ptracer78_del2       =   0.0000000000000E+00
(PID.TID 0000.0001) %MON trcstat_ptracer79_max        =   7.3466138071250E-06
(PID.TID 0000.0001) %MON trcstat_ptracer79_min        =   1.4160604848341E-29
(PID.TID 0000.0001) %MON trcstat_ptracer79_mean       =   2.1982754939623E-07
(PID.TID 0000.0001) %MON trcstat_ptracer79_sd         =   1.1491447314737E-06
(PID.TID 0000.0001) %MON trcstat_ptracer79_del2       =   0.0000000000000E+00
(PID.TID 0000.0001) %MON trcstat_ptracer80_max        =   7.2236554198085E-06
(PID.TID 0000.0001) %MON trcstat_ptracer80_min        =   1.4160604848340E-29
(PID.TID 0000.0001) %MON trcstat_ptracer80_mean       =   2.1570604114222E-07
(PID.TID 0000.0001) %MON trcstat_ptracer80_sd         =   1.1289188040154E-06
(PID.TID 0000.0001) %MON trcstat_ptracer80_del2       =   0.0000000000000E+00
(PID.TID 0000.0001) %MON trcstat_ptracer81_max        =   7.2798662396481E-06
(PID.TID 0000.0001) %MON trcstat_ptracer81_min        =   1.4160604848340E-29
(PID.TID 0000.0001) %MON trcstat_ptracer81_mean       =   2.1797147068661E-07
(PID.TID 0000.0001) %MON trcstat_ptracer81_sd         =   1.1395377826514E-06
(PID.TID 0000.0001) %MON trcstat_ptracer81_del2       =   0.0000000000000E+00
(PID.TID 0000.0001) %MON trcstat_ptracer82_max        =   7.2236554198061E-06
(PID.TID 0000.0001) %MON trcstat_ptracer82_min        =   1.4160604848340E-29
(PID.TID 0000.0001) %MON trcstat_ptracer82_mean       =   2.1541290466740E-07
(PID.TID 0000.0001) %MON trcstat_ptracer82_sd         =   1.1287740036444E-06
(PID.TID 0000.0001) %MON trcstat_ptracer82_del2       =   0.0000000000000E+00
(PID.TID 0000.0001) %MON trcstat_ptracer83_max        =   7.2236554198034E-06
(PID.TID 0000.0001) %MON trcstat_ptracer83_min        =   1.4160604848340E-29
(PID.TID 0000.0001) %MON trcstat_ptracer83_mean       =   2.1541788359253E-07
(PID.TID 0000.0001) %MON trcstat_ptracer83_sd         =   1.1287731951489E-06
(PID.TID 0000.0001) %MON trcstat_ptracer83_del2       =   0.0000000000000E+00
(PID.TID 0000.0001) %MON trcstat_ptracer84_max        =   7.4321991258408E-06
(PID.TID 0000.0001) %MON trcstat_ptracer84_min        =   1.4160604848341E-29
(PID.TID 0000.0001) %MON trcstat_ptracer84_mean       =   2.2154370273518E-07
(PID.TID 0000.0001) %MON trcstat_ptracer84_sd         =   1.1599465890531E-06
(PID.TID 0000.0001) %MON trcstat_ptracer84_del2       =   0.0000000000000E+00
(PID.TID 0000.0001) %MON trcstat_ptracer85_max        =   7.2242642740641E-06
(PID.TID 0000.0001) %MON trcstat_ptracer85_min        =   1.1449875060247E-37
(PID.TID 0000.0001) %MON trcstat_ptracer85_mean       =   2.1541290466724E-07
(PID.TID 0000.0001) %MON trcstat_ptracer85_sd         =   1.1293476836547E-06
(PID.TID 0000.0001) %MON trcstat_ptracer85_del2       =   0.0000000000000E+00
(PID.TID 0000.0001) %MON trcstat_ptracer86_max        =   7.2236554220406E-06
(PID.TID 0000.0001) %MON trcstat_ptracer86_min        =   1.4160604848341E-29
(PID.TID 0000.0001) %MON trcstat_ptracer86_mean       =   2.1566639388470E-07
(PID.TID 0000.0001) %MON trcstat_ptracer86_sd         =   1.1288693702667E-06
(PID.TID 0000.0001) %MON trcstat_ptracer86_del2       =   0.0000000000000E+00
(PID.TID 0000.0001) %MON trcstat_ptracer87_max        =   7.2242642740621E-06
(PID.TID 0000.0001) %MON trcstat_ptracer87_min        =   1.1449875060247E-37
(PID.TID 0000.0001) %MON trcstat_ptracer87_mean       =   2.1541290466717E-07
(PID.TID 0000.0001) %MON trcstat_ptracer87_sd         =   1.1293476836545E-06
(PID.TID 0000.0001) %MON trcstat_ptracer87_del2       =   0.0000000000000E+00
(PID.TID 0000.0001) %MON trcstat_ptracer88_max        =   7.2236554198054E-06
(PID.TID 0000.0001) %MON trcstat_ptracer88_min        =   1.4160604848340E-29
(PID.TID 0000.0001) %MON trcstat_ptracer88_mean       =   2.1541290466738E-07
(PID.TID 0000.0001) %MON trcstat_ptracer88_sd         =   1.1287740036443E-06
(PID.TID 0000.0001) %MON trcstat_ptracer88_del2       =   0.0000000000000E+00
(PID.TID 0000.0001) %MON trcstat_ptracer89_max        =   7.3119313186806E-06
(PID.TID 0000.0001) %MON trcstat_ptracer89_min        =   1.4160604848341E-29
(PID.TID 0000.0001) %MON trcstat_ptracer89_mean       =   2.1906770740722E-07
(PID.TID 0000.0001) %MON trcstat_ptracer89_sd         =   1.1447475273873E-06
(PID.TID 0000.0001) %MON trcstat_ptracer89_del2       =   0.0000000000000E+00
(PID.TID 0000.0001) %MON trcstat_ptracer90_max        =   7.4730304372800E-06
(PID.TID 0000.0001) %MON trcstat_ptracer90_min        =   1.1449875060247E-37
(PID.TID 0000.0001) %MON trcstat_ptracer90_mean       =   2.2266164746684E-07
(PID.TID 0000.0001) %MON trcstat_ptracer90_sd         =   1.1684948388294E-06
(PID.TID 0000.0001) %MON trcstat_ptracer90_del2       =   0.0000000000000E+00
(PID.TID 0000.0001) %MON trcstat_ptracer91_max        =   7.2242642740641E-06
(PID.TID 0000.0001) %MON trcstat_ptracer91_min        =   1.1449875060247E-37
(PID.TID 0000.0001) %MON trcstat_ptracer91_mean       =   2.1541290466725E-07
(PID.TID 0000.0001) %MON trcstat_ptracer91_sd         =   1.1293476836549E-06
(PID.TID 0000.0001) %MON trcstat_ptracer91_del2       =   0.0000000000000E+00
(PID.TID 0000.0001) %MON trcstat_ptracer92_max        =   7.2242642740629E-06
(PID.TID 0000.0001) %MON trcstat_ptracer92_min        =   1.1449875060247E-37
(PID.TID 0000.0001) %MON trcstat_ptracer92_mean       =   2.1541310862030E-07
(PID.TID 0000.0001) %MON trcstat_ptracer92_sd         =   1.1293476628204E-06
(PID.TID 0000.0001) %MON trcstat_ptracer92_del2       =   0.0000000000000E+00
(PID.TID 0000.0001) %MON trcstat_ptracer93_max        =   7.2236554220442E-06
(PID.TID 0000.0001) %MON trcstat_ptracer93_min        =   1.4160604848341E-29
(PID.TID 0000.0001) %MON trcstat_ptracer93_mean       =   2.1541335571863E-07
(PID.TID 0000.0001) %MON trcstat_ptracer93_sd         =   1.1287739203439E-06
(PID.TID 0000.0001) %MON trcstat_ptracer93_del2       =   0.0000000000000E+00
(PID.TID 0000.0001) %MON trcstat_ptracer94_max        =   7.2242642740638E-06
(PID.TID 0000.0001) %MON trcstat_ptracer94_min        =   1.1449875060247E-37
(PID.TID 0000.0001) %MON trcstat_ptracer94_mean       =   2.1541290466722E-07
(PID.TID 0000.0001) %MON trcstat_ptracer94_sd         =   1.1293476836548E-06
(PID.TID 0000.0001) %MON trcstat_ptracer94_del2       =   0.0000000000000E+00
(PID.TID 0000.0001) %MON trcstat_ptracer95_max        =   7.2871426245805E-06
(PID.TID 0000.0001) %MON trcstat_ptracer95_min        =   1.4160604848340E-29
(PID.TID 0000.0001) %MON trcstat_ptracer95_mean       =   2.1831213541080E-07
(PID.TID 0000.0001) %MON trcstat_ptracer95_sd         =   1.1409835216600E-06
(PID.TID 0000.0001) %MON trcstat_ptracer95_del2       =   0.0000000000000E+00
(PID.TID 0000.0001) %MON trcstat_ptracer96_max        =   7.2236554220406E-06
(PID.TID 0000.0001) %MON trcstat_ptracer96_min        =   1.4160604848341E-29
(PID.TID 0000.0001) %MON trcstat_ptracer96_mean       =   2.1541290472984E-07
(PID.TID 0000.0001) %MON trcstat_ptracer96_sd         =   1.1287740039804E-06
(PID.TID 0000.0001) %MON trcstat_ptracer96_del2       =   0.0000000000000E+00
(PID.TID 0000.0001) %MON trcstat_ptracer97_max        =   7.5380673770118E-06
(PID.TID 0000.0001) %MON trcstat_ptracer97_min        =   1.4160604848341E-29
(PID.TID 0000.0001) %MON trcstat_ptracer97_mean       =   2.2463609192519E-07
(PID.TID 0000.0001) %MON trcstat_ptracer97_sd         =   1.1778562892803E-06
(PID.TID 0000.0001) %MON trcstat_ptracer97_del2       =   0.0000000000000E+00
(PID.TID 0000.0001) %MON trcstat_ptracer98_max        =   7.2243806075159E-06
(PID.TID 0000.0001) %MON trcstat_ptracer98_min        =   1.4160604848340E-29
(PID.TID 0000.0001) %MON trcstat_ptracer98_mean       =   2.1660023847686E-07
(PID.TID 0000.0001) %MON trcstat_ptracer98_sd         =   1.1324534793103E-06
(PID.TID 0000.0001) %MON trcstat_ptracer98_del2       =   0.0000000000000E+00
(PID.TID 0000.0001) %MON trcstat_ptracer99_max        =   7.4209306595739E-06
(PID.TID 0000.0001) %MON trcstat_ptracer99_min        =   1.1449875060247E-37
(PID.TID 0000.0001) %MON trcstat_ptracer99_mean       =   2.2081563606264E-07
(PID.TID 0000.0001) %MON trcstat_ptracer99_sd         =   1.1600361754836E-06
(PID.TID 0000.0001) %MON trcstat_ptracer99_del2       =   0.0000000000000E+00
(PID.TID 0000.0001) // =======================================================
(PID.TID 0000.0001) // End MONITOR ptracers field statistics
(PID.TID 0000.0001) // =======================================================
(PID.TID 0000.0001) %CHECKPOINT         4 ckptA
(PID.TID 0000.0001)   Seconds in section "ALL                    [THE_MODEL_MAIN]":
(PID.TID 0000.0001)           User time:   2.5000000000000000
(PID.TID 0000.0001)         System time:  0.20000000000000001
(PID.TID 0000.0001)     Wall clock time:   10.696730852127075
(PID.TID 0000.0001)          No. starts:           1
(PID.TID 0000.0001)           No. stops:           1
(PID.TID 0000.0001)   Seconds in section "INITIALISE_FIXED       [THE_MODEL_MAIN]":
(PID.TID 0000.0001)           User time:  0.54000000000000004
(PID.TID 0000.0001)         System time:  2.99999999999999989E-002
(PID.TID 0000.0001)     Wall clock time:   1.2071368694305420
(PID.TID 0000.0001)          No. starts:           1
(PID.TID 0000.0001)           No. stops:           1
(PID.TID 0000.0001)   Seconds in section "THE_MAIN_LOOP          [THE_MODEL_MAIN]":
(PID.TID 0000.0001)           User time:   1.9600000000000000
(PID.TID 0000.0001)         System time:  0.17000000000000001
(PID.TID 0000.0001)     Wall clock time:   9.4880659580230713
(PID.TID 0000.0001)          No. starts:           1
(PID.TID 0000.0001)           No. stops:           1
(PID.TID 0000.0001)   Seconds in section "INITIALISE_VARIA    [THE_MAIN_LOOP]":
(PID.TID 0000.0001)           User time:  0.15000000000000002
(PID.TID 0000.0001)         System time:  2.00000000000000039E-002
(PID.TID 0000.0001)     Wall clock time:   1.8104341030120850
(PID.TID 0000.0001)          No. starts:           1
(PID.TID 0000.0001)           No. stops:           1
(PID.TID 0000.0001)   Seconds in section "MAIN LOOP           [THE_MAIN_LOOP]":
(PID.TID 0000.0001)           User time:   1.8100000000000001
(PID.TID 0000.0001)         System time:  0.15000000000000002
(PID.TID 0000.0001)     Wall clock time:   7.6775860786437988
(PID.TID 0000.0001)          No. starts:           1
(PID.TID 0000.0001)           No. stops:           1
(PID.TID 0000.0001)   Seconds in section "FORWARD_STEP        [THE_MAIN_LOOP]":
(PID.TID 0000.0001)           User time:   1.8100000000000001
(PID.TID 0000.0001)         System time:  0.14999999999999999
(PID.TID 0000.0001)     Wall clock time:   7.6775102615356445
(PID.TID 0000.0001)          No. starts:           4
(PID.TID 0000.0001)           No. stops:           4
(PID.TID 0000.0001)   Seconds in section "LOAD_FIELDS_DRIVER  [FORWARD_STEP]":
(PID.TID 0000.0001)           User time:   0.0000000000000000
(PID.TID 0000.0001)         System time:   0.0000000000000000
(PID.TID 0000.0001)     Wall clock time:  4.61077690124511719E-003
(PID.TID 0000.0001)          No. starts:           4
(PID.TID 0000.0001)           No. stops:           4
(PID.TID 0000.0001)   Seconds in section "EXTERNAL_FLDS_LOAD [LOAD_FLDS_DRIVER]":
(PID.TID 0000.0001)           User time:   0.0000000000000000
(PID.TID 0000.0001)         System time:   0.0000000000000000
(PID.TID 0000.0001)     Wall clock time:  5.84840774536132813E-004
(PID.TID 0000.0001)          No. starts:           4
(PID.TID 0000.0001)           No. stops:           4
(PID.TID 0000.0001)   Seconds in section "DO_ATMOSPHERIC_PHYS [FORWARD_STEP]":
(PID.TID 0000.0001)           User time:   0.0000000000000000
(PID.TID 0000.0001)         System time:   0.0000000000000000
(PID.TID 0000.0001)     Wall clock time:  6.27040863037109375E-005
(PID.TID 0000.0001)          No. starts:           4
(PID.TID 0000.0001)           No. stops:           4
(PID.TID 0000.0001)   Seconds in section "DO_OCEANIC_PHYS     [FORWARD_STEP]":
(PID.TID 0000.0001)           User time:   0.0000000000000000
(PID.TID 0000.0001)         System time:   0.0000000000000000
(PID.TID 0000.0001)     Wall clock time:  1.45649909973144531E-003
(PID.TID 0000.0001)          No. starts:           4
(PID.TID 0000.0001)           No. stops:           4
(PID.TID 0000.0001)   Seconds in section "GCHEM_CALC_TENDENCY [FORWARD_STEP]":
(PID.TID 0000.0001)           User time:   0.0000000000000000
(PID.TID 0000.0001)         System time:   0.0000000000000000
(PID.TID 0000.0001)     Wall clock time:  5.98430633544921875E-005
(PID.TID 0000.0001)          No. starts:           4
(PID.TID 0000.0001)           No. stops:           4
(PID.TID 0000.0001)   Seconds in section "THERMODYNAMICS      [FORWARD_STEP]":
(PID.TID 0000.0001)           User time:  0.52999999999999980
(PID.TID 0000.0001)         System time:   0.0000000000000000
(PID.TID 0000.0001)     Wall clock time:  0.52806067466735840
(PID.TID 0000.0001)          No. starts:           4
(PID.TID 0000.0001)           No. stops:           4
(PID.TID 0000.0001)   Seconds in section "TRC_CORRECTION_STEP [FORWARD_STEP]":
(PID.TID 0000.0001)           User time:  4.00000000000000355E-002
(PID.TID 0000.0001)         System time:   0.0000000000000000
(PID.TID 0000.0001)     Wall clock time:  4.10079956054687500E-002
(PID.TID 0000.0001)          No. starts:           4
(PID.TID 0000.0001)           No. stops:           4
(PID.TID 0000.0001)   Seconds in section "GCHEM_FORCING_SEP  [FORWARD_STEP]":
(PID.TID 0000.0001)           User time:  2.99999999999998046E-002
(PID.TID 0000.0001)         System time:   0.0000000000000000
(PID.TID 0000.0001)     Wall clock time:  2.98516750335693359E-002
(PID.TID 0000.0001)          No. starts:           4
(PID.TID 0000.0001)           No. stops:           4
(PID.TID 0000.0001)   Seconds in section "BLOCKING_EXCHANGES  [FORWARD_STEP]":
(PID.TID 0000.0001)           User time:  4.00000000000004796E-002
(PID.TID 0000.0001)         System time:   0.0000000000000000
(PID.TID 0000.0001)     Wall clock time:  3.83698940277099609E-002
(PID.TID 0000.0001)          No. starts:           4
(PID.TID 0000.0001)           No. stops:           4
(PID.TID 0000.0001)   Seconds in section "DO_STATEVARS_TAVE   [FORWARD_STEP]":
(PID.TID 0000.0001)           User time:   0.0000000000000000
(PID.TID 0000.0001)         System time:   0.0000000000000000
(PID.TID 0000.0001)     Wall clock time:  1.44600868225097656E-003
(PID.TID 0000.0001)          No. starts:           4
(PID.TID 0000.0001)           No. stops:           4
(PID.TID 0000.0001)   Seconds in section "MONITOR             [FORWARD_STEP]":
(PID.TID 0000.0001)           User time:  9.99999999999978684E-003
(PID.TID 0000.0001)         System time:   0.0000000000000000
(PID.TID 0000.0001)     Wall clock time:  5.31601905822753906E-003
(PID.TID 0000.0001)          No. starts:           4
(PID.TID 0000.0001)           No. stops:           4
(PID.TID 0000.0001)   Seconds in section "DO_THE_MODEL_IO     [FORWARD_STEP]":
(PID.TID 0000.0001)           User time:   1.1500000000000004
(PID.TID 0000.0001)         System time:  0.14999999999999999
(PID.TID 0000.0001)     Wall clock time:   7.0195720195770264
(PID.TID 0000.0001)          No. starts:           4
(PID.TID 0000.0001)           No. stops:           4
(PID.TID 0000.0001)   Seconds in section "DO_WRITE_PICKUP     [FORWARD_STEP]":
(PID.TID 0000.0001)           User time:  9.99999999999978684E-003
(PID.TID 0000.0001)         System time:   0.0000000000000000
(PID.TID 0000.0001)     Wall clock time:  6.91390037536621094E-003
(PID.TID 0000.0001)          No. starts:           4
(PID.TID 0000.0001)           No. stops:           4
(PID.TID 0000.0001) // ======================================================
(PID.TID 0000.0001) // Tile <-> Tile communication statistics
(PID.TID 0000.0001) // ======================================================
(PID.TID 0000.0001) // o Tile number: 000001
(PID.TID 0000.0001) //         No. X exchanges =              0
(PID.TID 0000.0001) //            Max. X spins =              0
(PID.TID 0000.0001) //            Min. X spins =     1000000000
(PID.TID 0000.0001) //          Total. X spins =              0
(PID.TID 0000.0001) //            Avg. X spins =       0.00E+00
(PID.TID 0000.0001) //         No. Y exchanges =              0
(PID.TID 0000.0001) //            Max. Y spins =              0
(PID.TID 0000.0001) //            Min. Y spins =     1000000000
(PID.TID 0000.0001) //          Total. Y spins =              0
(PID.TID 0000.0001) //            Avg. Y spins =       0.00E+00
(PID.TID 0000.0001) // o Thread number: 000001
(PID.TID 0000.0001) //            No. barriers =          21754
(PID.TID 0000.0001) //      Max. barrier spins =              1
(PID.TID 0000.0001) //      Min. barrier spins =              1
(PID.TID 0000.0001) //     Total barrier spins =          21754
(PID.TID 0000.0001) //      Avg. barrier spins =       1.00E+00
